!-Generator IDFEditor 1.29a
!-Option OriginalOrderTop UseSpecialFormat
!-NOTE: All comments with '!-' are ignored by the IDFEditor and are generated automatically.
!-      Use '!' comments if they need to be retained when using the IDFEditor.
! Introduction to EnergyPlus - Exercise 2
!
! Building: Single floor rectangular building 30.5 m (100 ft) x 15.2 m (50 ft). 5 zones -
!           4 exterior, 1 interior, zone height 2.4 m (8 ft). Exterior zone
!           depth is 3.7 m (12 ft). There is a 0.6 m (2 ft) high return plenum. The
!           overall building height is 3m (10 ft). There are windows on
!           all 4 facades; the south and north facades have glass doors.
!           The south facing glass is shaded by overhangs. The walls
!           are woodshingle over plywood, R11 insulation, and gypboard.
!           The roof is a gravel built up roof with mineral board
!           insulation and plywood sheathing. The floor slab is 0.1 m (4 in)
!           of heavy concrete. The windows and glass doors are double
!           pane Low-e clear glass with argon gap. The window to wall ratio is
!           approximately 0.3.
!
!           The building is oriented with the long axis running east-west.
!
! Floor Area:        463.6 m2 (5000 ft2)
!
! Internal: Lighting is 16 W/m2 (1.5 W/ft2), office equip is 10.8 W/m2 (1.0 W/ft2).
!           1 occupant per 9.3 m2 (100 ft2) of floor area. The
!           Infiltration is 0.25 air changes per hour.
!
! HVAC:     None.
!
! Environment:  Chicago, IL, USA, Summer and Winter design days
!
!

  Version,24.1;

  Building,
    Exercise 2,              !- Name
    0.0,                     !- North Axis {deg}
    City,                    !- Terrain
    0.04,                    !- Loads Convergence Tolerance Value {W}
    0.4,                     !- Temperature Convergence Tolerance Value {deltaC}
    FullInteriorAndExterior, !- Solar Distribution
    ,                        !- Maximum Number of Warmup Days
    6;                       !- Minimum Number of Warmup Days

  Timestep,4;

  SurfaceConvectionAlgorithm:Inside,Simple;

  SurfaceConvectionAlgorithm:Outside,SimpleCombined;

  HeatBalanceAlgorithm,ConductionTransferFunction;

  ZoneCapacitanceMultiplier:ResearchSpecial,
    Multiplier,              !- Name
    ,                        !- Zone or ZoneList Name
    1.0,                     !- Temperature Capacity Multiplier
    1.0,                     !- Humidity Capacity Multiplier
    1.0,                     !- Carbon Dioxide Capacity Multiplier
    1.0;                     !- Generic Contaminant Capacity Multiplier

  SimulationControl,
    No,                      !- Do Zone Sizing Calculation
    No,                      !- Do System Sizing Calculation
    No,                      !- Do Plant Sizing Calculation
    Yes,                     !- Run Simulation for Sizing Periods
    No,                      !- Run Simulation for Weather File Run Periods
    No,                      !- Do HVAC Sizing Simulation for Sizing Periods
    1;                       !- Maximum Number of HVAC Sizing Simulation Passes

  RunPeriod,
    Run Period 1,            !- Name
    1,                       !- Begin Month
    1,                       !- Begin Day of Month
    ,                        !- Begin Year
    12,                      !- End Month
    31,                      !- End Day of Month
    ,                        !- End Year
    Sunday,                  !- Day of Week for Start Day
    Yes,                     !- Use Weather File Holidays and Special Days
    Yes,                     !- Use Weather File Daylight Saving Period
    No,                      !- Apply Weekend Holiday Rule
    Yes,                     !- Use Weather File Rain Indicators
    Yes;                     !- Use Weather File Snow Indicators

  Site:Location,
    CHICAGO_IL_USA TMY2-94846,  !- Name
    41.78,                   !- Latitude {deg}
    -87.75,                  !- Longitude {deg}
    -6.00,                   !- Time Zone {hr}
    190.00;                  !- Elevation {m}

! CHICAGO_IL_USA Heating 99%, MaxDB= -18.10°C

  SizingPeriod:DesignDay,
    CHICAGO_IL_USA Heating 99% Conditions,  !- Name
    1,                       !- Month
    21,                      !- Day of Month
    WinterDesignDay,         !- Day Type
    -18.10,                  !- Maximum Dry-Bulb Temperature {C}
    0.00,                    !- Daily Dry-Bulb Temperature Range {deltaC}
    ,                        !- Dry-Bulb Temperature Range Modifier Type
    ,                        !- Dry-Bulb Temperature Range Modifier Day Schedule Name
    Wetbulb,                 !- Humidity Condition Type
    -18.10,                  !- Wetbulb or DewPoint at Maximum Dry-Bulb {C}
    ,                        !- Humidity Condition Day Schedule Name
    ,                        !- Humidity Ratio at Maximum Dry-Bulb {kgWater/kgDryAir}
    ,                        !- Enthalpy at Maximum Dry-Bulb {J/kg}
    ,                        !- Daily Wet-Bulb Temperature Range {deltaC}
    99063.,                  !- Barometric Pressure {Pa}
    4.60,                    !- Wind Speed {m/s}
    270.00,                  !- Wind Direction {deg}
    No,                      !- Rain Indicator
    No,                      !- Snow Indicator
    No,                      !- Daylight Saving Time Indicator
    ASHRAEClearSky,          !- Solar Model Indicator
    ,                        !- Beam Solar Day Schedule Name
    ,                        !- Diffuse Solar Day Schedule Name
    ,                        !- ASHRAE Clear Sky Optical Depth for Beam Irradiance (taub) {dimensionless}
    ,                        !- ASHRAE Clear Sky Optical Depth for Diffuse Irradiance (taud) {dimensionless}
    0.00;                    !- Sky Clearness

! CHICAGO_IL_USA Cooling (DB=>MWB) 1%, MaxDB=  31.30°C MWB=  22.80°C

  SizingPeriod:DesignDay,
    CHICAGO_IL_USA Cooling 1% Conditions DB=>MWB,  !- Name
    7,                       !- Month
    21,                      !- Day of Month
    SummerDesignDay,         !- Day Type
    31.30,                   !- Maximum Dry-Bulb Temperature {C}
    10.90,                   !- Daily Dry-Bulb Temperature Range {deltaC}
    ,                        !- Dry-Bulb Temperature Range Modifier Type
    ,                        !- Dry-Bulb Temperature Range Modifier Day Schedule Name
    Wetbulb,                 !- Humidity Condition Type
    22.80,                   !- Wetbulb or DewPoint at Maximum Dry-Bulb {C}
    ,                        !- Humidity Condition Day Schedule Name
    ,                        !- Humidity Ratio at Maximum Dry-Bulb {kgWater/kgDryAir}
    ,                        !- Enthalpy at Maximum Dry-Bulb {J/kg}
    ,                        !- Daily Wet-Bulb Temperature Range {deltaC}
    99063.,                  !- Barometric Pressure {Pa}
    5.40,                    !- Wind Speed {m/s}
    230.00,                  !- Wind Direction {deg}
    No,                      !- Rain Indicator
    No,                      !- Snow Indicator
    No,                      !- Daylight Saving Time Indicator
    ASHRAEClearSky,          !- Solar Model Indicator
    ,                        !- Beam Solar Day Schedule Name
    ,                        !- Diffuse Solar Day Schedule Name
    ,                        !- ASHRAE Clear Sky Optical Depth for Beam Irradiance (taub) {dimensionless}
    ,                        !- ASHRAE Clear Sky Optical Depth for Diffuse Irradiance (taud) {dimensionless}
    1.00;                    !- Sky Clearness

  Site:GroundTemperature:BuildingSurface,20.4,20.4,20.4,20.4,21.5,22.7,22.9,23.0,23.0,21.9,20.7,20.5;

  Material,
    WD10,                    !- Name
    MediumSmooth,            !- Roughness
    0.667,                   !- Thickness {m}
    0.115,                   !- Conductivity {W/m-K}
    513,                     !- Density {kg/m3}
    1381,                    !- Specific Heat {J/kg-K}
    0.9,                     !- Thermal Absorptance
    0.78,                    !- Solar Absorptance
    0.78;                    !- Visible Absorptance

  Material,
    RG01,                    !- Name
    Rough,                   !- Roughness
    1.2700000E-02,           !- Thickness {m}
    1.442000,                !- Conductivity {W/m-K}
    881.0000,                !- Density {kg/m3}
    1674.000,                !- Specific Heat {J/kg-K}
    0.9000000,               !- Thermal Absorptance
    0.6500000,               !- Solar Absorptance
    0.6500000;               !- Visible Absorptance

  Material,
    BR01,                    !- Name
    VeryRough,               !- Roughness
    9.4999997E-03,           !- Thickness {m}
    0.1620000,               !- Conductivity {W/m-K}
    1121.000,                !- Density {kg/m3}
    1464.000,                !- Specific Heat {J/kg-K}
    0.9000000,               !- Thermal Absorptance
    0.7000000,               !- Solar Absorptance
    0.7000000;               !- Visible Absorptance

  Material,
    IN46,                    !- Name
    VeryRough,               !- Roughness
    7.6200001E-02,           !- Thickness {m}
    2.3000000E-02,           !- Conductivity {W/m-K}
    24.00000,                !- Density {kg/m3}
    1590.000,                !- Specific Heat {J/kg-K}
    0.9000000,               !- Thermal Absorptance
    0.5000000,               !- Solar Absorptance
    0.5000000;               !- Visible Absorptance

  Material,
    WD01,                    !- Name
    MediumSmooth,            !- Roughness
    1.9099999E-02,           !- Thickness {m}
    0.1150000,               !- Conductivity {W/m-K}
    513.0000,                !- Density {kg/m3}
    1381.000,                !- Specific Heat {J/kg-K}
    0.9000000,               !- Thermal Absorptance
    0.7800000,               !- Solar Absorptance
    0.7800000;               !- Visible Absorptance

  Material,
    PW03,                    !- Name
    MediumSmooth,            !- Roughness
    1.2700000E-02,           !- Thickness {m}
    0.1150000,               !- Conductivity {W/m-K}
    545.0000,                !- Density {kg/m3}
    1213.000,                !- Specific Heat {J/kg-K}
    0.9000000,               !- Thermal Absorptance
    0.7800000,               !- Solar Absorptance
    0.7800000;               !- Visible Absorptance

  Material,
    IN02,                    !- Name
    Rough,                   !- Roughness
    9.0099998E-02,           !- Thickness {m}
    4.3000001E-02,           !- Conductivity {W/m-K}
    10.00000,                !- Density {kg/m3}
    837.0000,                !- Specific Heat {J/kg-K}
    0.9000000,               !- Thermal Absorptance
    0.7500000,               !- Solar Absorptance
    0.7500000;               !- Visible Absorptance

  Material,
    GP01,                    !- Name
    MediumSmooth,            !- Roughness
    1.2700000E-02,           !- Thickness {m}
    0.1600000,               !- Conductivity {W/m-K}
    801.0000,                !- Density {kg/m3}
    837.0000,                !- Specific Heat {J/kg-K}
    0.9000000,               !- Thermal Absorptance
    0.7500000,               !- Solar Absorptance
    0.7500000;               !- Visible Absorptance

  Material,
    GP02,                    !- Name
    MediumSmooth,            !- Roughness
    1.5900001E-02,           !- Thickness {m}
    0.1600000,               !- Conductivity {W/m-K}
    801.0000,                !- Density {kg/m3}
    837.0000,                !- Specific Heat {J/kg-K}
    0.9000000,               !- Thermal Absorptance
    0.7500000,               !- Solar Absorptance
    0.7500000;               !- Visible Absorptance

  Material,
    CC03,                    !- Name
    MediumRough,             !- Roughness
    0.1016000,               !- Thickness {m}
    1.310000,                !- Conductivity {W/m-K}
    2243.000,                !- Density {kg/m3}
    837.0000,                !- Specific Heat {J/kg-K}
    0.9000000,               !- Thermal Absorptance
    0.6500000,               !- Solar Absorptance
    0.6500000;               !- Visible Absorptance

  Material:NoMass,
    CP01,                    !- Name
    Rough,                   !- Roughness
    0.3670000,               !- Thermal Resistance {m2-K/W}
    0.9000000,               !- Thermal Absorptance
    0.7500000,               !- Solar Absorptance
    0.7500000;               !- Visible Absorptance

  Material:NoMass,
    MAT-SB-U,                !- Name
    Rough,                   !- Roughness
    0.117406666,             !- Thermal Resistance {m2-K/W}
    0.65,                    !- Thermal Absorptance
    0.65,                    !- Solar Absorptance
    0.65;                    !- Visible Absorptance

  Material:NoMass,
    MAT-CLNG-1,              !- Name
    Rough,                   !- Roughness
    0.652259290,             !- Thermal Resistance {m2-K/W}
    0.65,                    !- Thermal Absorptance
    0.65,                    !- Solar Absorptance
    0.65;                    !- Visible Absorptance

  Material:NoMass,
    MAT-FLOOR-1,             !- Name
    Rough,                   !- Roughness
    3.522199631,             !- Thermal Resistance {m2-K/W}
    0.65,                    !- Thermal Absorptance
    0.65,                    !- Solar Absorptance
    0.65;                    !- Visible Absorptance

  Material:AirGap,
    AL21,                    !- Name
    0.1570000;               !- Thermal Resistance {m2-K/W}

  Material:AirGap,
    AL23,                    !- Name
    0.1530000;               !- Thermal Resistance {m2-K/W}

  WindowMaterial:Glazing,
    CLEAR 3MM,               !- Name
    SpectralAverage,         !- Optical Data Type
    ,                        !- Window Glass Spectral Data Set Name
    0.003,                   !- Thickness {m}
    0.837,                   !- Solar Transmittance at Normal Incidence
    0.075,                   !- Front Side Solar Reflectance at Normal Incidence
    0.075,                   !- Back Side Solar Reflectance at Normal Incidence
    0.898,                   !- Visible Transmittance at Normal Incidence
    0.081,                   !- Front Side Visible Reflectance at Normal Incidence
    0.081,                   !- Back Side Visible Reflectance at Normal Incidence
    0.0,                     !- Infrared Transmittance at Normal Incidence
    0.84,                    !- Front Side Infrared Hemispherical Emissivity
    0.84,                    !- Back Side Infrared Hemispherical Emissivity
    0.9;                     !- Conductivity {W/m-K}

  WindowMaterial:Glazing,
    GREY 3MM,                !- Name
    SpectralAverage,         !- Optical Data Type
    ,                        !- Window Glass Spectral Data Set Name
    0.003,                   !- Thickness {m}
    0.626,                   !- Solar Transmittance at Normal Incidence
    0.061,                   !- Front Side Solar Reflectance at Normal Incidence
    0.061,                   !- Back Side Solar Reflectance at Normal Incidence
    0.611,                   !- Visible Transmittance at Normal Incidence
    0.061,                   !- Front Side Visible Reflectance at Normal Incidence
    0.061,                   !- Back Side Visible Reflectance at Normal Incidence
    0.0,                     !- Infrared Transmittance at Normal Incidence
    0.84,                    !- Front Side Infrared Hemispherical Emissivity
    0.84,                    !- Back Side Infrared Hemispherical Emissivity
    0.9;                     !- Conductivity {W/m-K}

  WindowMaterial:Glazing,
    CLEAR 6MM,               !- Name
    SpectralAverage,         !- Optical Data Type
    ,                        !- Window Glass Spectral Data Set Name
    0.006,                   !- Thickness {m}
    0.775,                   !- Solar Transmittance at Normal Incidence
    0.071,                   !- Front Side Solar Reflectance at Normal Incidence
    0.071,                   !- Back Side Solar Reflectance at Normal Incidence
    0.881,                   !- Visible Transmittance at Normal Incidence
    0.080,                   !- Front Side Visible Reflectance at Normal Incidence
    0.080,                   !- Back Side Visible Reflectance at Normal Incidence
    0.0,                     !- Infrared Transmittance at Normal Incidence
    0.84,                    !- Front Side Infrared Hemispherical Emissivity
    0.84,                    !- Back Side Infrared Hemispherical Emissivity
    0.9;                     !- Conductivity {W/m-K}

  WindowMaterial:Glazing,
    LoE CLEAR 6MM,           !- Name
    SpectralAverage,         !- Optical Data Type
    ,                        !- Window Glass Spectral Data Set Name
    0.006,                   !- Thickness {m}
    0.600,                   !- Solar Transmittance at Normal Incidence
    0.170,                   !- Front Side Solar Reflectance at Normal Incidence
    0.220,                   !- Back Side Solar Reflectance at Normal Incidence
    0.840,                   !- Visible Transmittance at Normal Incidence
    0.055,                   !- Front Side Visible Reflectance at Normal Incidence
    0.078,                   !- Back Side Visible Reflectance at Normal Incidence
    0.0,                     !- Infrared Transmittance at Normal Incidence
    0.84,                    !- Front Side Infrared Hemispherical Emissivity
    0.10,                    !- Back Side Infrared Hemispherical Emissivity
    0.9;                     !- Conductivity {W/m-K}

  WindowMaterial:Gas,
    AIR 6MM,                 !- Name
    Air,                     !- Gas Type
    0.0063;                  !- Thickness {m}

  WindowMaterial:Gas,
    AIR 13MM,                !- Name
    Air,                     !- Gas Type
    0.0127;                  !- Thickness {m}

  WindowMaterial:Gas,
    ARGON 13MM,              !- Name
    Argon,                   !- Gas Type
    0.0127;                  !- Thickness {m}

  Construction,
    ROOF-1,                  !- Name
    RG01,                    !- Outside Layer
    BR01,                    !- Layer 2
    IN46,                    !- Layer 3
    WD01;                    !- Layer 4

  Construction,
    WALL-1,                  !- Name
    WD01,                    !- Outside Layer
    PW03,                    !- Layer 2
    IN02,                    !- Layer 3
    GP01;                    !- Layer 4

  Construction,
    CLNG-1,                  !- Name
    MAT-CLNG-1;              !- Outside Layer

  Construction,
    FLOOR-SLAB-1,            !- Name
    CC03;                    !- Outside Layer

  Construction,
    INT-WALL-1,              !- Name
    GP02,                    !- Outside Layer
    AL21,                    !- Layer 2
    GP02;                    !- Layer 3

  Construction,
    Double LoE Clear Argon,  !- Name
    LoE CLEAR 6MM,           !- Outside Layer
    ARGON 13MM,              !- Layer 2
    CLEAR 6MM;               !- Layer 3

  Zone,
    PLENUM,                  !- Name
    0,                       !- Direction of Relative North {deg}
    0,                       !- X Origin {m}
    0,                       !- Y Origin {m}
    0,                       !- Z Origin {m}
    1,                       !- Type
    1,                       !- Multiplier
    0.609600067,             !- Ceiling Height {m}
    283.2,                   !- Volume {m3}
    autocalculate,           !- Floor Area {m2}
    ,                        !- Zone Inside Convection Algorithm
    ,                        !- Zone Outside Convection Algorithm
    No;                      !- Part of Total Floor Area

  Zone,
    SOUTH PERIMETER,         !- Name
    0,                       !- Direction of Relative North {deg}
    0,                       !- X Origin {m}
    0,                       !- Y Origin {m}
    0,                       !- Z Origin {m}
    1,                       !- Type
    1,                       !- Multiplier
    2.438400269,             !- Ceiling Height {m}
    239.247360229,           !- Volume {m3}
    autocalculate,           !- Floor Area {m2}
    ,                        !- Zone Inside Convection Algorithm
    ,                        !- Zone Outside Convection Algorithm
    Yes;                     !- Part of Total Floor Area

  Zone,
    EAST PERIMETER,          !- Name
    0,                       !- Direction of Relative North {deg}
    0,                       !- X Origin {m}
    0,                       !- Y Origin {m}
    0,                       !- Z Origin {m}
    1,                       !- Type
    1,                       !- Multiplier
    2.438400269,             !- Ceiling Height {m}
    103.311355591,           !- Volume {m3}
    autocalculate,           !- Floor Area {m2}
    ,                        !- Zone Inside Convection Algorithm
    ,                        !- Zone Outside Convection Algorithm
    Yes;                     !- Part of Total Floor Area

  Zone,
    NORTH PERIMETER,         !- Name
    0,                       !- Direction of Relative North {deg}
    0,                       !- X Origin {m}
    0,                       !- Y Origin {m}
    0,                       !- Z Origin {m}
    1,                       !- Type
    1,                       !- Multiplier
    2.438400269,             !- Ceiling Height {m}
    239.247360229,           !- Volume {m3}
    autocalculate,           !- Floor Area {m2}
    ,                        !- Zone Inside Convection Algorithm
    ,                        !- Zone Outside Convection Algorithm
    Yes;                     !- Part of Total Floor Area

  Zone,
    WEST PERIMETER,          !- Name
    0,                       !- Direction of Relative North {deg}
    0,                       !- X Origin {m}
    0,                       !- Y Origin {m}
    0,                       !- Z Origin {m}
    1,                       !- Type
    1,                       !- Multiplier
    2.438400269,             !- Ceiling Height {m}
    103.311355591,           !- Volume {m3}
    autocalculate,           !- Floor Area {m2}
    ,                        !- Zone Inside Convection Algorithm
    ,                        !- Zone Outside Convection Algorithm
    Yes;                     !- Part of Total Floor Area

  Zone,
    CORE,                    !- Name
    0,                       !- Direction of Relative North {deg}
    0,                       !- X Origin {m}
    0,                       !- Y Origin {m}
    0,                       !- Z Origin {m}
    1,                       !- Type
    1,                       !- Multiplier
    2.438400269,             !- Ceiling Height {m}
    447.682556152,           !- Volume {m3}
    autocalculate,           !- Floor Area {m2}
    ,                        !- Zone Inside Convection Algorithm
    ,                        !- Zone Outside Convection Algorithm
    Yes;                     !- Part of Total Floor Area

  GlobalGeometryRules,
    UpperLeftCorner,         !- Starting Vertex Position
    Counterclockwise,        !- Vertex Entry Direction
    Relative;                !- Coordinate System

  BuildingSurface:Detailed,
    WALL-1PF,                !- Name
    Wall,                    !- Surface Type
    WALL-1,                  !- Construction Name
    PLENUM,                  !- Zone Name
    ,                        !- Space Name
    Outdoors,                !- Outside Boundary Condition
    ,                        !- Outside Boundary Condition Object
    SunExposed,              !- Sun Exposure
    WindExposed,             !- Wind Exposure
    0.50000,                 !- View Factor to Ground
    4,                       !- Number of Vertices
    0.0,0.0,3.0,  !- X,Y,Z ==> Vertex 1 {m}
    0.0,0.0,2.4,  !- X,Y,Z ==> Vertex 2 {m}
    30.5,0.0,2.4,  !- X,Y,Z ==> Vertex 3 {m}
    30.5,0.0,3.0;  !- X,Y,Z ==> Vertex 4 {m}

  BuildingSurface:Detailed,
    WALL-1PR,                !- Name
    Wall,                    !- Surface Type
    WALL-1,                  !- Construction Name
    PLENUM,                  !- Zone Name
    ,                        !- Space Name
    Outdoors,                !- Outside Boundary Condition
    ,                        !- Outside Boundary Condition Object
    SunExposed,              !- Sun Exposure
    WindExposed,             !- Wind Exposure
    0.50000,                 !- View Factor to Ground
    4,                       !- Number of Vertices
    30.5,0.0,3.0,  !- X,Y,Z ==> Vertex 1 {m}
    30.5,0.0,2.4,  !- X,Y,Z ==> Vertex 2 {m}
    30.5,15.2,2.4,  !- X,Y,Z ==> Vertex 3 {m}
    30.5,15.2,3.0;  !- X,Y,Z ==> Vertex 4 {m}

  BuildingSurface:Detailed,
    WALL-1PB,                !- Name
    Wall,                    !- Surface Type
    WALL-1,                  !- Construction Name
    PLENUM,                  !- Zone Name
    ,                        !- Space Name
    Outdoors,                !- Outside Boundary Condition
    ,                        !- Outside Boundary Condition Object
    SunExposed,              !- Sun Exposure
    WindExposed,             !- Wind Exposure
    0.50000,                 !- View Factor to Ground
    4,                       !- Number of Vertices
    30.5,15.2,3.0,  !- X,Y,Z ==> Vertex 1 {m}
    30.5,15.2,2.4,  !- X,Y,Z ==> Vertex 2 {m}
    0.0,15.2,2.4,  !- X,Y,Z ==> Vertex 3 {m}
    0.0,15.2,3.0;  !- X,Y,Z ==> Vertex 4 {m}

  BuildingSurface:Detailed,
    WALL-1PL,                !- Name
    Wall,                    !- Surface Type
    WALL-1,                  !- Construction Name
    PLENUM,                  !- Zone Name
    ,                        !- Space Name
    Outdoors,                !- Outside Boundary Condition
    ,                        !- Outside Boundary Condition Object
    SunExposed,              !- Sun Exposure
    WindExposed,             !- Wind Exposure
    0.50000,                 !- View Factor to Ground
    4,                       !- Number of Vertices
    0.0,15.2,3.0,  !- X,Y,Z ==> Vertex 1 {m}
    0.0,15.2,2.4,  !- X,Y,Z ==> Vertex 2 {m}
    0.0,0.0,2.4,  !- X,Y,Z ==> Vertex 3 {m}
    0.0,0.0,3.0;  !- X,Y,Z ==> Vertex 4 {m}

  BuildingSurface:Detailed,
    TOP-1,                   !- Name
    Roof,                    !- Surface Type
    ROOF-1,                  !- Construction Name
    PLENUM,                  !- Zone Name
    ,                        !- Space Name
    Outdoors,                !- Outside Boundary Condition
    ,                        !- Outside Boundary Condition Object
    SunExposed,              !- Sun Exposure
    WindExposed,             !- Wind Exposure
    0.00000,                 !- View Factor to Ground
    4,                       !- Number of Vertices
    0.0,15.2,3.0,  !- X,Y,Z ==> Vertex 1 {m}
    0.0,0.0,3.0,  !- X,Y,Z ==> Vertex 2 {m}
    30.5,0.0,3.0,  !- X,Y,Z ==> Vertex 3 {m}
    30.5,15.2,3.0;  !- X,Y,Z ==> Vertex 4 {m}

  BuildingSurface:Detailed,
    C1-1P,                   !- Name
    Floor,                   !- Surface Type
    CLNG-1,                  !- Construction Name
    PLENUM,                  !- Zone Name
    ,                        !- Space Name
    Surface,                 !- Outside Boundary Condition
    C1-1,                    !- Outside Boundary Condition Object
    NoSun,                   !- Sun Exposure
    NoWind,                  !- Wind Exposure
    0.0,                     !- View Factor to Ground
    4,                       !- Number of Vertices
    26.8,3.7,2.4,  !- X,Y,Z ==> Vertex 1 {m}
    30.5,0.0,2.4,  !- X,Y,Z ==> Vertex 2 {m}
    0.0,0.0,2.4,  !- X,Y,Z ==> Vertex 3 {m}
    3.7,3.7,2.4;  !- X,Y,Z ==> Vertex 4 {m}

  BuildingSurface:Detailed,
    C2-1P,                   !- Name
    Floor,                   !- Surface Type
    CLNG-1,                  !- Construction Name
    PLENUM,                  !- Zone Name
    ,                        !- Space Name
    Surface,                 !- Outside Boundary Condition
    C2-1,                    !- Outside Boundary Condition Object
    NoSun,                   !- Sun Exposure
    NoWind,                  !- Wind Exposure
    0.0,                     !- View Factor to Ground
    4,                       !- Number of Vertices
    26.8,11.6,2.4,  !- X,Y,Z ==> Vertex 1 {m}
    30.5,15.2,2.4,  !- X,Y,Z ==> Vertex 2 {m}
    30.5,0.0,2.4,  !- X,Y,Z ==> Vertex 3 {m}
    26.8,3.7,2.4;  !- X,Y,Z ==> Vertex 4 {m}

  BuildingSurface:Detailed,
    C3-1P,                   !- Name
    Floor,                   !- Surface Type
    CLNG-1,                  !- Construction Name
    PLENUM,                  !- Zone Name
    ,                        !- Space Name
    Surface,                 !- Outside Boundary Condition
    C3-1,                    !- Outside Boundary Condition Object
    NoSun,                   !- Sun Exposure
    NoWind,                  !- Wind Exposure
    0.0,                     !- View Factor to Ground
    4,                       !- Number of Vertices
    26.8,11.6,2.4,  !- X,Y,Z ==> Vertex 1 {m}
    3.7,11.6,2.4,  !- X,Y,Z ==> Vertex 2 {m}
    0.0,15.2,2.4,  !- X,Y,Z ==> Vertex 3 {m}
    30.5,15.2,2.4;  !- X,Y,Z ==> Vertex 4 {m}

  BuildingSurface:Detailed,
    C4-1P,                   !- Name
    Floor,                   !- Surface Type
    CLNG-1,                  !- Construction Name
    PLENUM,                  !- Zone Name
    ,                        !- Space Name
    Surface,                 !- Outside Boundary Condition
    C4-1,                    !- Outside Boundary Condition Object
    NoSun,                   !- Sun Exposure
    NoWind,                  !- Wind Exposure
    0.0,                     !- View Factor to Ground
    4,                       !- Number of Vertices
    3.7,3.7,2.4,  !- X,Y,Z ==> Vertex 1 {m}
    0.0,0.0,2.4,  !- X,Y,Z ==> Vertex 2 {m}
    0.0,15.2,2.4,  !- X,Y,Z ==> Vertex 3 {m}
    3.7,11.6,2.4;  !- X,Y,Z ==> Vertex 4 {m}

  BuildingSurface:Detailed,
    C5-1P,                   !- Name
    Floor,                   !- Surface Type