!-Generator IDFEditor 1.49
!-Option SortedOrder

!-NOTE: All comments with '!-' are ignored by the IDFEditor and are generated automatically.
!-      Use '!' comments if they need to be retained when using the IDFEditor.


!-   ===========  ALL OBJECTS IN CLASS: VERSION ===========

!
! Basic file description:  This file models a single zone building with a hybrid unitary HVAC system using object:
!
!                              ZoneHVAC:HybridUnitaryHVAC
!
! Highlights:              Test of AvailabilityManagers for controlling an air system.
!
! Simulation Location/Run: DENVER_STAPLETON_CO_USA_WMO_724690, 2 design days, 1 run period,
!                          Run Control executes two design days (see RUN PERIOD object)
!
! Location:                Denver, CO
!
! Design Days:             DENVER_STAPLETON_CO_USA Annual Heating 99%, MaxDB=-16°C
!                          DENVER_STAPLETON_CO_USA Annual Cooling (DB=>MWB) 1%, MaxDB=32.6°C MWB=15.5°C
!
! Run Period (Weather File): Full Annual Simulation, DENVER_STAPLETON_CO_USA_WMO_724690
!
! Run Control:             No zone or system sizing, design day run control (no weather file simulation)
!
! Building:                Fictional 1 zone building with resistive walls based on 1ZoneUncontrolled example.
!                          No windows.  No internal gains.  No internal mass.  The building is oriented due north.
!
! Floor Area:              232.25 m2
! Number of Stories:       1
Version,
    8.7;                     !- Version Identifier


!-   ===========  ALL OBJECTS IN CLASS: SIMULATIONCONTROL ===========

SimulationControl,
    No,                      !- Do Zone Sizing Calculation
    No,                      !- Do System Sizing Calculation
    No,                      !- Do Plant Sizing Calculation
    Yes,                     !- Run Simulation for Sizing Periods
    no;                      !- Run Simulation for Weather File Run Periods


!-   ===========  ALL OBJECTS IN CLASS: BUILDING ===========

Building,
    Bldg,                    !- Name
    0.0,                     !- North Axis {deg}
    Suburbs,                 !- Terrain
    0.05,                    !- Loads Convergence Tolerance Value
    0.05,                    !- Temperature Convergence Tolerance Value {deltaC}
    MinimalShadowing,        !- Solar Distribution
    30,                      !- Maximum Number of Warmup Days
    6;                       !- Minimum Number of Warmup Days


!-   ===========  ALL OBJECTS IN CLASS: SURFACECONVECTIONALGORITHM:INSIDE ===========

SurfaceConvectionAlgorithm:Inside,
    TARP;                    !- Algorithm


!-   ===========  ALL OBJECTS IN CLASS: SURFACECONVECTIONALGORITHM:OUTSIDE ===========

SurfaceConvectionAlgorithm:Outside,
    DOE-2;                   !- Algorithm


!-   ===========  ALL OBJECTS IN CLASS: HEATBALANCEALGORITHM ===========

HeatBalanceAlgorithm,
    ConductionTransferFunction;  !- Algorithm


!-   ===========  ALL OBJECTS IN CLASS: TIMESTEP ===========

Timestep,
    6;                       !- Number of Timesteps per Hour


!-   ===========  ALL OBJECTS IN CLASS: SITE:LOCATION ===========

Site:Location,
    Denver Centennial CO USA WMO=724666,  !- Name
    39.57,                   !- Latitude {deg}
    -104.85,                 !- Longitude {deg}
    -7.00,                   !- Time Zone {hr}
    1793.00;                 !- Elevation {m}


!-   ===========  ALL OBJECTS IN CLASS: SIZINGPERIOD:DESIGNDAY ===========

!  WMO=724666 Time Zone=NAM        (GMT-07:00) Mountain Time (US & Canada)
!  Data Source=ASHRAE 2009 Annual Design Conditions
! Using Design Conditions from "Climate Design Data 2009 ASHRAE Handbook"
! Denver Centennial CO USA Extreme Annual Wind Speeds, 1%=11.1m/s, 2.5%=9.5m/s, 5%=8.4m/s
! Denver Centennial CO USA Extreme Annual Temperatures, Max Drybulb=-22.9°C Min Drybulb=36.1°C
! Denver Centennial CO USA Annual Heating Design Conditions Wind Speed=3m/s Wind Dir=340
! Coldest Month=December
! Denver Centennial CO USA Annual Heating 99.6%, MaxDB=-18.8°C
SizingPeriod:DesignDay,
    Denver Centennial Ann Htg 99.6% Condns DB,  !- Name
    12,                      !- Month
    21,                      !- Day of Month
    WinterDesignDay,         !- Day Type
    -18.8,                   !- Maximum Dry-Bulb Temperature {C}
    0.0,                     !- Daily Dry-Bulb Temperature Range {deltaC}
    ,                        !- Dry-Bulb Temperature Range Modifier Type
    ,                        !- Dry-Bulb Temperature Range Modifier Day Schedule Name
    Wetbulb,                 !- Humidity Condition Type
    -18.8,                   !- Wetbulb or DewPoint at Maximum Dry-Bulb {C}
    ,                        !- Humidity Condition Day Schedule Name
    0.0005,                        !- Humidity Ratio at Maximum Dry-Bulb {kgWater/kgDryAir}
    ,                        !- Enthalpy at Maximum Dry-Bulb {J/kg}
    ,                        !- Daily Wet-Bulb Temperature Range {deltaC}
    81560.,                  !- Barometric Pressure {Pa}
    3,                       !- Wind Speed {m/s}
    340,                     !- Wind Direction {deg}
    No,                      !- Rain Indicator
    No,                      !- Snow Indicator
    No,                      !- Daylight Saving Time Indicator
    ASHRAEClearSky,          !- Solar Model Indicator
    ,                        !- Beam Solar Day Schedule Name
    ,                        !- Diffuse Solar Day Schedule Name
    ,                        !- ASHRAE Clear Sky Optical Depth for Beam Irradiance (taub) {dimensionless}
    ,                        !- ASHRAE Clear Sky Optical Depth for Diffuse Irradiance (taud) {dimensionless}
    0.00;                    !- Sky Clearness

! Denver Centennial Annual Cooling Design Conditions Wind Speed=4.9m/s Wind Dir=0
! Hottest Month=July
! Denver Centennial CO USA Annual Cooling (DB=>MWB) 1%, MaxDB=32°C MWB=15.5°C
SizingPeriod:DesignDay,
    Denver Centennial Ann Clg 1% Condns DB=>MWB,  !- Name
    7,                       !- Month
    21,                      !- Day of Month
    SummerDesignDay,         !- Day Type
    36,                      !- Maximum Dry-Bulb Temperature {C}
    15.2,                    !- Daily Dry-Bulb Temperature Range {deltaC}
    ,                        !- Dry-Bulb Temperature Range Modifier Type
    ,                        !- Dry-Bulb Temperature Range Modifier Day Schedule Name
    Wetbulb,                 !- Humidity Condition Type
    15.5,                    !- Wetbulb or DewPoint at Maximum Dry-Bulb {C}
    ,                        !- Humidity Condition Day Schedule Name
    0.0188,                        !- Humidity Ratio at Maximum Dry-Bulb {kgWater/kgDryAir}
    ,                        !- Enthalpy at Maximum Dry-Bulb {J/kg}
    ,                        !- Daily Wet-Bulb Temperature Range {deltaC}
    81560.,                  !- Barometric Pressure {Pa}
    4.9,                     !- Wind Speed {m/s}
    0,                       !- Wind Direction {deg}
    No,                      !- Rain Indicator
    No,                      !- Snow Indicator
    No,                      !- Daylight Saving Time Indicator
    ASHRAEClearSky,          !- Solar Model Indicator
    ,                        !- Beam Solar Day Schedule Name
    ,                        !- Diffuse Solar Day Schedule Name
    ,                        !- ASHRAE Clear Sky Optical Depth for Beam Irradiance (taub) {dimensionless}
    ,                        !- ASHRAE Clear Sky Optical Depth for Diffuse Irradiance (taud) {dimensionless}
    1.00;                    !- Sky Clearness


!-   ===========  ALL OBJECTS IN CLASS: RUNPERIOD ===========

RunPeriod,
    ,                        !- Name
    1,                       !- Begin Month
    1,                       !- Begin Day of Month
    12,                      !- End Month
    31,                      !- End Day of Month
    Tuesday,                 !- Day of Week for Start Day
    Yes,                     !- Use Weather File Holidays and Special Days
    Yes,                     !- Use Weather File Daylight Saving Period
    No,                      !- Apply Weekend Holiday Rule
    Yes,                     !- Use Weather File Rain Indicators
    Yes;                     !- Use Weather File Snow Indicators


!-   ===========  ALL OBJECTS IN CLASS: SITE:GROUNDTEMPERATURE:BUILDINGSURFACE ===========

Site:GroundTemperature:BuildingSurface,
    18.89,                   !- January Ground Temperature {C}
    18.92,                   !- February Ground Temperature {C}
    19.02,                   !- March Ground Temperature {C}
    19.12,                   !- April Ground Temperature {C}
    19.21,                   !- May Ground Temperature {C}
    19.23,                   !- June Ground Temperature {C}
    19.07,                   !- July Ground Temperature {C}
    19.32,                   !- August Ground Temperature {C}
    19.09,                   !- September Ground Temperature {C}
    19.21,                   !- October Ground Temperature {C}
    19.13,                   !- November Ground Temperature {C}
    18.96;                   !- December Ground Temperature {C}


!-   ===========  ALL OBJECTS IN CLASS: SCHEDULETYPELIMITS ===========

ScheduleTypeLimits,
    Fraction,                !- Name
    0.0,                     !- Lower Limit Value
    1.0,                     !- Upper Limit Value
    CONTINUOUS;              !- Numeric Type

ScheduleTypeLimits,
    Any Number;              !- Name


!-   ===========  ALL OBJECTS IN CLASS: SCHEDULE:COMPACT ===========

Schedule:Compact,
    System Availability Schedule,  !- Name
    Any Number,              !- Schedule Type Limits Name
    THROUGH: 12/31,          !- Field 1
    FOR: AllDays,            !- Field 2
    UNTIL: 24:00,            !- Field 3
    1;                       !- Field 4

Schedule:Compact,
    Fan Availability Schedule,  !- Name
    Any Number,              !- Schedule Type Limits Name
    THROUGH: 12/31,          !- Field 1
    FOR: AllDays,            !- Field 2
    UNTIL: 12:00,            !- Field 3
    1,                       !- Field 4
    UNTIL: 24:00,            !- Field 5
    0;                       !- Field 6

Schedule:Compact,
    ALWAYS_ON,               !- Name
    On/Off,                  !- Schedule Type Limits Name
    Through: 12/31,          !- Field 1
    For: AllDays,            !- Field 2
    Until: 24:00,            !- Field 3
    1;                       !- Field 4

Schedule:Compact,
    MinSupplyT,              !- Name
    Temperature,             !- Schedule Type Limits Name
    Through: 12/31,          !- Field 1
    For: AllDays,            !- Field 2
    Until: 24:00,            !- Field 3
    2;                       !- Field 4

Schedule:Compact,
    MaxSupplyT,              !- Name
    Temperature,             !- Schedule Type Limits Name
    Through: 12/31,          !- Field 1
    For: AllDays,            !- Field 2
    Until: 24:00,            !- Field 3
    50;                      !- Field 4

Schedule:Compact,
    MinSupplyHR,             !- Name
    Temperature,             !- Schedule Type Limits Name
    Through: 12/31,          !- Field 1
    For: AllDays,            !- Field 2
    Until: 24:00,            !- Field 3
    0;                       !- Field 4

Schedule:Compact,
    MaxSupplyHR,             !- Name
    Temperature,             !- Schedule Type Limits Name
    Through: 12/31,          !- Field 1
    For: AllDays,            !- Field 2
    Until: 24:00,            !- Field 3
    0.03;                    !- Field 4

Schedule:Compact,
    Zone Control Type Sched, !- Name
    Any Number,              !- Schedule Type Limits Name
    Through: 12/31,          !- Field 1
    For: AllDays,            !- Field 2
    Until: 24:00,            !- Field 3
    4;                       !- Field 4

Schedule:Compact,
    Heating Setpoint Schedule,  !- Name
    Any Number,              !- Schedule Type Limits Name
    Through: 12/31,          !- Field 1
    For: AllDays,            !- Field 2
    Until: 24:00,            !- Field 3
    18;                      !- Field 4

Schedule:Compact,
    Cooling Setpoint Schedule,  !- Name
    Any Number,              !- Schedule Type Limits Name
    Through: 12/31,          !- Field 1
    For: AllDays,            !- Field 2
    Until: 24:00,            !- Field 3
    22;                      !- Field 4

Schedule:Compact,
    MinOA_simple,            !- Name
    Fraction,                !- Schedule Type Limits Name
    Through: 12/31,          !- Field 1
    For: AllDays,            !- Field 2
    Until: 8:00,             !- Field 3
    0.0,                     !- Field 4
    Until: 21:00,            !- Field 5
    1.0,                     !- Field 6
    Until: 24:00,            !- Field 7
    0.0;                     !- Field 8

Schedule:Compact,
    MinOA,                   !- Name
    Fraction,                !- Schedule Type Limits Name
    Through: 12/31,          !- Field 1
    For: WeekDays CustomDay1 CustomDay2,  !- Field 2
    Until: 8:00,             !- Field 3
    0.0,                     !- Field 4
    Until: 21:00,            !- Field 5
    1.0,                     !- Field 6
    Until: 24:00,            !- Field 7
    0.0,                     !- Field 8
    For: Weekends Holiday,   !- Field 9
    Until: 24:00,            !- Field 10
    0.0,                     !- Field 11
    For: SummerDesignDay,    !- Field 12
    Until: 24:00,            !- Field 13
    1.0,                     !- Field 14
    For: WinterDesignDay,    !- Field 15
    Until: 24:00,            !- Field 16
    1.0;                     !- Field 17

Schedule:Compact,
    ActSchd,                 !- Name
    Any Number,              !- Schedule Type Limits Name
    Through: 12/31,          !- Field 1
    For: AllDays,            !- Field 2
    Until: 24:00,            !- Field 3
    117.239997864;           !- Field 4

Schedule:Compact,
    OCCUPY-1,                !- Name
    Fraction,                !- Schedule Type Limits Name
    Through: 12/31,          !- Field 1
    For: WeekDays SummerDesignDay CustomDay1 CustomDay2,  !- Field 2
    Until: 8:00,             !- Field 3
    0.0,                     !- Field 4
    Until: 11:00,            !- Field 5
    1.00,                    !- Field 6
    Until: 12:00,            !- Field 7
    0.80,                    !- Field 8
    Until: 13:00,            !- Field 9
    0.40,                    !- Field 10
    Until: 14:00,            !- Field 11
    0.80,                    !- Field 12
    Until: 18:00,            !- Field 13
    1.00,                    !- Field 14
    Until: 19:00,            !- Field 15
    0.50,                    !- Field 16
    Until: 24:00,            !- Field 17
    0.0,                     !- Field 18
    For: Weekends WinterDesignDay Holiday,  !- Field 19
    Until: 24:00,            !- Field 20
    0.0;                     !- Field 21


!-   ===========  ALL OBJECTS IN CLASS: MATERIAL ===========

Material,
    C5 - 4 IN HW CONCRETE,   !- Name
    MediumRough,             !- Roughness
    0.1014984,               !- Thickness {m}
    1.729577,                !- Conductivity {W/m-K}
    2242.585,                !- Density {kg/m3}
    836.8000,                !- Specific Heat {J/kg-K}
    0.9000000,               !- Thermal Absorptance
    0.6500000,               !- Solar Absorptance
    0.6500000;               !- Visible Absorptance


!-   ===========  ALL OBJECTS IN CLASS: MATERIAL:NOMASS ===========

Material:NoMass,
    R13LAYER,                !- Name
    Rough,                   !- Roughness
    2.290965,                !- Thermal Resistance {m2-K/W}
    0.9000000,               !- Thermal Absorptance
    0.7500000,               !- Solar Absorptance
    0.7500000;               !- Visible Absorptance

Material:NoMass,
    R31LAYER,                !- Name
    Rough,                   !- Roughness
    5.456,                   !- Thermal Resistance {m2-K/W}
    0.9000000,               !- Thermal Absorptance
    0.7500000,               !- Solar Absorptance
    0.7500000;               !- Visible Absorptance


!-   ===========  ALL OBJECTS IN CLASS: CONSTRUCTION ===========

Construction,
    R13WALL,                 !- Name
    R13LAYER;                !- Outside Layer

Construction,
    FLOOR,                   !- Name
    C5 - 4 IN HW CONCRETE;   !- Outside Layer

Construction,
    ROOF31,                  !- Name
    R31LAYER;                !- Outside Layer


!-   ===========  ALL OBJECTS IN CLASS: GLOBALGEOMETRYRULES ===========

GlobalGeometryRules,
    UpperLeftCorner,         !- Starting Vertex Position
    CounterClockWise,        !- Vertex Entry Direction
    World;                   !- Coordinate System


!-   ===========  ALL OBJECTS IN CLASS: ZONE ===========

Zone,
    Main Zone,               !- Name
    0,                       !- Direction of Relative North {deg}
    0,                       !- X Origin {m}
    0,                       !- Y Origin {m}
    0,                       !- Z Origin {m}
    1,                       !- Type
    1,                       !- Multiplier
    autocalculate,           !- Ceiling Height {m}
    autocalculate;           !- Volume {m3}


!-   ===========  ALL OBJECTS IN CLASS: BUILDINGSURFACE:DETAILED ===========

BuildingSurface:Detailed,
    Zn001:Wall001,           !- Name
    Wall,                    !- Surface Type
    R13WALL,                 !- Construction Name
    Main Zone,               !- Zone Name
    Outdoors,                !- Outside Boundary Condition
    ,                        !- Outside Boundary Condition Object
    SunExposed,              !- Sun Exposure
    WindExposed,             !- Wind Exposure
    0.5000000,               !- View Factor to Ground
    4,                       !- Number of Vertices
    0,                       !- Vertex 1 X-coordinate {m}
    0,                       !- Vertex 1 Y-coordinate {m}
    4.572000,                !- Vertex 1 Z-coordinate {m}
    0,                       !- Vertex 2 X-coordinate {m}
    0,                       !- Vertex 2 Y-coordinate {m}
    0,                       !- Vertex 2 Z-coordinate {m}
    15.24000,                !- Vertex 3 X-coordinate {m}
    0,                       !- Vertex 3 Y-coordinate {m}
    0,                       !- Vertex 3 Z-coordinate {m}
    15.24000,                !- Vertex 4 X-coordinate {m}
    0,                       !- Vertex 4 Y-coordinate {m}
    4.572000;                !- Vertex 4 Z-coordinate {m}

BuildingSurface:Detailed,
    Zn001:Wall002,           !- Name
    Wall,                    !- Surface Type
    R13WALL,                 !- Construction Name
    Main Zone,               !- Zone Name
    Outdoors,                !- Outside Boundary Condition
    ,                        !- Outside Boundary Condition Object
    SunExposed,              !- Sun Exposure
    WindExposed,             !- Wind Exposure
    0.5000000,               !- View Factor to Ground
    4,                       !- Number of Vertices
    15.24000,                !- Vertex 1 X-coordinate {m}
    0,                       !- Vertex 1 Y-coordinate {m}
    4.572000,                !- Vertex 1 Z-coordinate {m}
    15.24000,                !- Vertex 2 X-coordinate {m}
    0,                       !- Vertex 2 Y-coordinate {m}
    0,                       !- Vertex 2 Z-coordinate {m}
    15.24000,                !- Vertex 3 X-coordinate {m}
    15.24000,                !- Vertex 3 Y-coordinate {m}
    0,                       !- Vertex 3 Z-coordinate {m}
    15.24000,                !- Vertex 4 X-coordinate {m}
    15.24000,                !- Vertex 4 Y-coordinate {m}
    4.572000;                !- Vertex 4 Z-coordinate {m}

BuildingSurface:Detailed,
    Zn001:Wall003,           !- Name
    Wall,                    !- Surface Type
    R13WALL,                 !- Construction Name
    Main Zone,               !- Zone Name
    Outdoors,                !- Outside Boundary Condition
    ,                        !- Outside Boundary Condition Object
    SunExposed,              !- Sun Exposure
    WindExposed,             !- Wind Exposure
    0.5000000,               !- View Factor to Ground
    4,                       !- Number of Vertices
    15.24000,                !- Vertex 1 X-coordinate {m}
    15.24000,                !- Vertex 1 Y-coordinate {m}
    4.572000,                !- Vertex 1 Z-coordinate {m}
    15.24000,                !- Vertex 2 X-coordinate {m}
    15.24000,                !- Vertex 2 Y-coordinate {m}
    0,                       !- Vertex 2 Z-coordinate {m}
    0,                       !- Vertex 3 X-coordinate {m}
    15.24000,                !- Vertex 3 Y-coordinate {m}
    0,                       !- Vertex 3 Z-coordinate {m}
    0,                       !- Vertex 4 X-coordinate {m}
    15.24000,                !- Vertex 4 Y-coordinate {m}
    4.572000;                !- Vertex 4 Z-coordinate {m}

BuildingSurface:Detailed,
    Zn001:Wall004,           !- Name
    Wall,                    !- Surface Type
    R13WALL,                 !- Construction Name
    Main Zone,               !- Zone Name
    Outdoors,                !- Outside Boundary Condition
    ,                        !- Outside Boundary Condition Object
    SunExposed,              !- Sun Exposure
    WindExposed,             !- Wind Exposure
    0.5000000,               !- View Factor to Ground
    4,                       !- Number of Vertices
    0,                       !- Vertex 1 X-coordinate {m}
    15.24000,                !- Vertex 1 Y-coordinate {m}
    4.572000,                !- Vertex 1 Z-coordinate {m}
    0,                       !- Vertex 2 X-coordinate {m}
    15.24000,                !- Vertex 2 Y-coordinate {m}
    0,                       !- Vertex 2 Z-coordinate {m}
    0,                       !- Vertex 3 X-coordinate {m}
    0,                       !- Vertex 3 Y-coordinate {m}
    0,                       !- Vertex 3 Z-coordinate {m}
    0,                       !- Vertex 4 X-coordinate {m}
    0,                       !- Vertex 4 Y-coordinate {m}
    4.572000;                !- Vertex 4 Z-coordinate {m}

BuildingSurface:Detailed,
    Zn001:Flr001,            !- Name
    Floor,                   !- Surface Type
    FLOOR,                   !- Construction Name
    Main Zone,               !- Zone Name
    Surface,                 !- Outside Boundary Condition
    Zn001:Flr001,            !- Outside Boundary Condition Object
    NoSun,                   !- Sun Exposure
    NoWind,                  !- Wind Exposure
    1.000000,                !- View Factor to Ground
    4,                       !- Number of Vertices
    15.24000,                !- Vertex 1 X-coordinate {m}
    0.000000,                !- Vertex 1 Y-coordinate {m}
    0.0,                     !- Vertex 1 Z-coordinate {m}
    0.000000,                !- Vertex 2 X-coordinate {m}
    0.000000,                !- Vertex 2 Y-coordinate {m}
    0.0,                     !- Vertex 2 Z-coordinate {m}
    0.000000,                !- Vertex 3 X-coordinate {m}
    15.24000,                !- Vertex 3 Y-coordinate {m}
    0.0,                     !- Vertex 3 Z-coordinate {m}
    15.24000,                !- Vertex 4 X-coordinate {m}
    15.24000,                !- Vertex 4 Y-coordinate {m}
    0.0;                     !- Vertex 4 Z-coordinate {m}

BuildingSurface:Detailed,
    Zn001:Roof001,           !- Name
    Roof,                    !- Surface Type
    ROOF31,                  !- Construction Name
    Main Zone,               !- Zone Name
    Outdoors,                !- Outside Boundary Condition
    ,                        !- Outside Boundary Condition Object
    SunExposed,              !- Sun Exposure
    WindExposed,             !- Wind Exposure
    0,                       !- View Factor to Ground
    4,                       !- Number of Vertices
    0.000000,                !- Vertex 1 X-coordinate {m}
    15.24000,                !- Vertex 1 Y-coordinate {m}
    4.572,                   !- Vertex 1 Z-coordinate {m}
    0.000000,                !- Vertex 2 X-coordinate {m}
    0.000000,                !- Vertex 2 Y-coordinate {m}
    4.572,                   !- Vertex 2 Z-coordinate {m}
    15.24000,                !- Vertex 3 X-coordinate {m}
    0.000000,                !- Vertex 3 Y-coordinate {m}
    4.572,                   !- Vertex 3 Z-coordinate {m}
    15.24000,                !- Vertex 4 X-coordinate {m}
    15.24000,                !- Vertex 4 Y-coordinate {m}
    4.572;                   !- Vertex 4 Z-coordinate {m}


!-   ===========  ALL OBJECTS IN CLASS: PEOPLE ===========

People,
    SPACE1-1 People 1,       !- Name
    Main Zone,               !- Zone or ZoneList Name
    OCCUPY-1,                !- Number of People Schedule Name
    people,                  !- Number of People Calculation Method
    11,                      !- Number of People
    ,                        !- People per Zone Floor Area {person/m2}
    ,                        !- Zone Floor Area per Person {m2/person}
    0.3,                     !- Fraction Radiant
    ,                        !- Sensible Heat Fraction
    ActSchd;                 !- Activity Level Schedule Name


!-   ===========  ALL OBJECTS IN CLASS: ZONEINFILTRATION:DESIGNFLOWRATE ===========

ZoneInfiltration:DesignFlowRate,
    Main Zone Infiltration,  !- Name
    Main Zone,               !- Zone or ZoneList Name
    System Availability Schedule,  !- Schedule Name
    Flow/Zone,               !- Design Flow Rate Calculation Method
    0.02,                    !- Design Flow Rate {m3/s}
    ,                        !- Flow per Zone Floor Area {m3/s-m2}
    ,                        !- Flow per Exterior Surface Area {m3/s-m2}
    ,                        !- Air Changes per Hour {1/hr}
    1.0000,                  !- Constant Term Coefficient
    0.0000,                  !- Temperature Term Coefficient
    0.0000,                  !- Velocity Term Coefficient
    0.0000;                  !- Velocity Squared Term Coefficient


!-   ===========  ALL OBJECTS IN CLASS: DESIGNSPECIFICATION:OUTDOORAIR ===========

DesignSpecification:OutdoorAir,
    SZ DSOA SPACE2-1,        !- Name
    Flow/Zone,               !- Outdoor Air Method
    0.00236,                 !- Outdoor Air Flow per Person {m3/s-person}
    0.000305,                !- Outdoor Air Flow per Zone Floor Area {m3/s-m2}
    2.3,                     !- Outdoor Air Flow per Zone {m3/s}
    ,                        !- Outdoor Air Flow Air Changes per Hour {1/hr}
    MinOA_simple;            !- Outdoor Air Schedule Name


!-   ===========  ALL OBJECTS IN CLASS: SIZING:ZONE ===========

Sizing:Zone,
    Main Zone,               !- Zone or ZoneList Name
    SupplyAirTemperature,    !- Zone Cooling Design Supply Air Temperature Input Method
    14.,                     !- Zone Cooling Design Supply Air Temperature {C}
    ,                        !- Zone Cooling Design Supply Air Temperature Difference {deltaC}
    SupplyAirTemperature,    !- Zone Heating Design Supply Air Temperature Input Method
    50.,                     !- Zone Heating Design Supply Air Temperature {C}
    ,                        !- Zone Heating Design Supply Air Temperature Difference {deltaC}
    0.009,                   !- Zone Cooling Design Supply Air Humidity Ratio {kgWater/kgDryAir}
    0.004,                   !- Zone Heating Design Supply Air Humidity Ratio {kgWater/kgDryAir}
    SZ DSOA SPACE2-1,        !- Design Specification Outdoor Air Object Name
    0.0,                     !- Zone Heating Sizing Factor
    0.0,                     !- Zone Cooling Sizing Factor
    DesignDayWithLimit,      !- Cooling Design Air Flow Method
    ,                        !- Cooling Design Air Flow Rate {m3/s}
    ,                        !- Cooling Minimum Air Flow per Zone Floor Area {m3/s-m2}
    ,                        !- Cooling Minimum Air Flow {m3/s}
    ,                        !- Cooling Minimum Air Flow Fraction
    DesignDay;               !- Heating Design Air Flow Method


!-   ===========  ALL OBJECTS IN CLASS: ZONECONTROL:THERMOSTAT ===========

ZoneControl:Thermostat,
    Main Zone Thermostat,    !- Name
    Main Zone,               !- Zone or ZoneList Name
    Zone Control Type Sched, !- Control Type Schedule Name
    ThermostatSetpoint:DualSetpoint,  !- Control 1 Object Type
    Dual Setpoint Control;   !- Control 1 Name

  ZoneControl:Humidistat,
    Main Zone Humidistat,     !- Name
    Main Zone,                !- Zone Name
    HumidifyingHumSetSch,    !- Humidifying Relative Humidity Setpoint Schedule Name
    DehumidifyingHumSetSch;  !- Dehumidifying Relative Humidity Setpoint Schedule Name
  Schedule:Compact,
    HumidifyingHumSetSch,    !- Name
    Humidity,                !- Schedule Type Limits Name
    Through: 12/31,          !- Field 1
    For: Alldays,            !- Field 2
    Until: 24:00,40.0;       !- Field 3

  Schedule:Compact,
    DehumidifyingHumSetSch,  !- Name
    Humidity,                !- Schedule Type Limits Name
    Through: 12/31,          !- Field 1
    For: Alldays,            !- Field 2
    Until: 24:00,50.0;       !- Field 3
!-   ===========  ALL OBJECTS IN CLASS: THERMOSTATSETPOINT:DUALSETPOINT ===========

ThermostatSetpoint:DualSetpoint,
    Dual Setpoint Control,   !- Name
    Heating Setpoint Schedule,  !- Heating Setpoint Temperature Schedule Name
    Cooling Setpoint Schedule;  !- Cooling Setpoint Temperature Schedule Name


!-   ===========  ALL OBJECTS IN CLASS: ZONEHVAC:HYBRIDUNITARYHVAC ===========

ZoneHVAC:HybridUnitaryHVAC,
    MUNTERSEPX5000,          !- Name
    ALWAYS_ON,               !- Availability Schedule Name
    ,                        !- Availability Manager List Name
    MinSupplyT,              !- Minimum Supply Air Temperature Schedule Name
    MaxSupplyT,              !- Maximum Supply Air Temperature Schedule Name