!-Generator IDFEditor 1.33c
!-Option OriginalOrderTop UseSpecialFormat
!-NOTE: All comments with '!-' are ignored by the IDFEditor and are generated automatically.
!-      Use '!' comments if they need to be retained when using the IDFEditor.
!
!

  Version,8.1;

  Timestep,6;

  SimulationControl,
    No,                      !- Do Zone Sizing Calculation
    No,                      !- Do System Sizing Calculation
    No,                      !- Do Plant Sizing Calculation
    No,                      !- Run Simulation for Sizing Periods
    Yes;                     !- Run Simulation for Weather File Run Periods

  RunPeriod,
    ,                        !- Name
    9,                       !- Begin Month
    15,                      !- Begin Day of Month
    9,                       !- End Month
    26,                      !- End Day of Month
    Tuesday,                 !- Day of Week for Start Day
    No,                      !- Use Weather File Holidays and Special Days
    No,                      !- Use Weather File Daylight Saving Period
    Yes,                     !- Apply Weekend Holiday Rule
    Yes,                     !- Use Weather File Rain Indicators
    Yes,                     !- Use Weather File Snow Indicators
    1;                       !- Number of Times Runperiod to be Repeated

  SurfaceConvectionAlgorithm:Inside,TARP;

  SurfaceConvectionAlgorithm:Outside,DOE-2;

  HeatBalanceAlgorithm,CTF,200;

  Sizing:Parameters,
    1.2,                     !- Heating Sizing Factor
    1.2,                     !- Cooling Sizing Factor
    4;                       !- Timesteps in Averaging Window

  ZoneCapacitanceMultiplier:ResearchSpecial,
    1.0,                     !- Temperature Capacity Multiplier
    1.0,                     !- Humidity Capacity Multiplier
    1.0,                     !- Carbon Dioxide Capacity Multiplier
    1.0;                     !- Generic Contaminant Capacity Multiplier

  ConvergenceLimits,
    0,                       !- Minimum System Timestep {minutes}
    10;                      !- Maximum HVAC Iterations

  ShadowCalculation,
    AverageOverDaysInFrequency,  !- Calculation Method
    20,                      !- Calculation Frequency
    1000;                    !- Maximum Figures in Shadow Overlap Calculations

  GlobalGeometryRules,
    UpperLeftCorner,         !- Starting Vertex Position
    Counterclockwise,        !- Vertex Entry Direction
    Relative;                !- Coordinate System

  Building,
    Classroom and Office Building,  !- Name
    315,                     !- North Axis {deg}
    Country,                 !- Terrain
    0.04,                    !- Loads Convergence Tolerance Value
    0.4,                     !- Temperature Convergence Tolerance Value {deltaC}
    FullExterior,            !- Solar Distribution
    25,                      !- Maximum Number of Warmup Days
    6;                       !- Minimum Number of Warmup Days

  RunPeriodControl:SpecialDays,
    New Years Day,           !- Name
    January 1,               !- Start Date
    1,                       !- Duration {days}
    Holiday;                 !- Special Day Type

  RunPeriodControl:SpecialDays,
    Veterans Day,            !- Name
    November 11,             !- Start Date
    1,                       !- Duration {days}
    Holiday;                 !- Special Day Type

  RunPeriodControl:SpecialDays,
    Christmas,               !- Name
    December 25,             !- Start Date
    1,                       !- Duration {days}
    Holiday;                 !- Special Day Type

  RunPeriodControl:SpecialDays,
    Independence Day,        !- Name
    July 4,                  !- Start Date
    1,                       !- Duration {days}
    Holiday;                 !- Special Day Type

  RunPeriodControl:SpecialDays,
    MLK Day,                 !- Name
    3rd Monday in January,   !- Start Date
    1,                       !- Duration {days}
    Holiday;                 !- Special Day Type

  RunPeriodControl:SpecialDays,
    Presidents Day,          !- Name
    3rd Monday in February,  !- Start Date
    1,                       !- Duration {days}
    Holiday;                 !- Special Day Type

  RunPeriodControl:SpecialDays,
    Memorial Day,            !- Name
    Last Monday in May,      !- Start Date
    1,                       !- Duration {days}
    Holiday;                 !- Special Day Type

  RunPeriodControl:SpecialDays,
    Labor Day,               !- Name
    1st Monday in September, !- Start Date
    1,                       !- Duration {days}
    Holiday;                 !- Special Day Type

  RunPeriodControl:SpecialDays,
    Columbus Day,            !- Name
    2nd Monday in October,   !- Start Date
    1,                       !- Duration {days}
    Holiday;                 !- Special Day Type

  RunPeriodControl:SpecialDays,
    Thanksgiving,            !- Name
    4th Thursday in November,!- Start Date
    1,                       !- Duration {days}
    Holiday;                 !- Special Day Type

  RunPeriodControl:DaylightSavingTime,
    2nd Sunday in March,     !- Start Date
    1st Sunday in November;  !- End Date

  Site:Location,
    Climate Zone 12 CA USA WYEC2-C-00012 WMO#=724830,  !- Name
    37.3,                    !- Latitude {deg}
    120.57,                  !- Longitude {deg}
    -8.0,                    !- Time Zone {hr}
    61;                      !- Elevation {m}

  Site:GroundTemperature:BuildingSurface,20.11,20.13,20.14,20.18,20.20,20.22,20.23,20.26,20.27,20.24,20.26,20.25;

  SizingPeriod:DesignDay,
    12_CA_USA Annual Heating 99.6% Design Conditions DB,  !- Name
    12,                      !- Month
    21,                      !- Day of Month
    WinterDesignDay,         !- Day Type
    -.5,                     !- Maximum Dry-Bulb Temperature {C}
    0,                       !- Daily Dry-Bulb Temperature Range {deltaC}
    DefaultMultipliers,      !- Dry-Bulb Temperature Range Modifier Type
    ,                        !- Dry-Bulb Temperature Range Modifier Day Schedule Name
    Wetbulb,                 !- Humidity Condition Type
    -.5,                     !- Wetbulb or DewPoint at Maximum Dry-Bulb {C}
    ,                        !- Humidity Condition Day Schedule Name
    ,                        !- Humidity Ratio at Maximum Dry-Bulb {kgWater/kgDryAir}
    ,                        !- Enthalpy at Maximum Dry-Bulb {J/kg}
    ,                        !- Daily Wet-Bulb Temperature Range {deltaC}
    101265,                  !- Barometric Pressure {Pa}
    1.1,                     !- Wind Speed {m/s}
    320,                     !- Wind Direction {deg}
    No,                      !- Rain Indicator
    No,                      !- Snow Indicator
    No,                      !- Daylight Saving Time Indicator
    ASHRAEClearSky,          !- Solar Model Indicator
    ,                        !- Beam Solar Day Schedule Name
    ,                        !- Diffuse Solar Day Schedule Name
    ,                        !- ASHRAE Clear Sky Optical Depth for Beam Irradiance (taub) {dimensionless}
    ,                        !- ASHRAE Clear Sky Optical Depth for Diffuse Irradiance (taud) {dimensionless}
    0;                       !- Sky Clearness

  SizingPeriod:DesignDay,
    12_CA_USA Annual Cooling 1% Design Conditions DB/MWB,  !- Name
    7,                       !- Month
    21,                      !- Day of Month
    SummerDesignDay,         !- Day Type
    36,                      !- Maximum Dry-Bulb Temperature {C}
    18.1,                    !- Daily Dry-Bulb Temperature Range {deltaC}
    DefaultMultipliers,      !- Dry-Bulb Temperature Range Modifier Type
    ,                        !- Dry-Bulb Temperature Range Modifier Day Schedule Name
    Wetbulb,                 !- Humidity Condition Type
    20.4,                    !- Wetbulb or DewPoint at Maximum Dry-Bulb {C}
    ,                        !- Humidity Condition Day Schedule Name
    ,                        !- Humidity Ratio at Maximum Dry-Bulb {kgWater/kgDryAir}
    ,                        !- Enthalpy at Maximum Dry-Bulb {J/kg}
    ,                        !- Daily Wet-Bulb Temperature Range {deltaC}
    101265,                  !- Barometric Pressure {Pa}
    3.5,                     !- Wind Speed {m/s}
    200,                     !- Wind Direction {deg}
    No,                      !- Rain Indicator
    No,                      !- Snow Indicator
    No,                      !- Daylight Saving Time Indicator
    ASHRAEClearSky,          !- Solar Model Indicator
    ,                        !- Beam Solar Day Schedule Name
    ,                        !- Diffuse Solar Day Schedule Name
    ,                        !- ASHRAE Clear Sky Optical Depth for Beam Irradiance (taub) {dimensionless}
    ,                        !- ASHRAE Clear Sky Optical Depth for Diffuse Irradiance (taud) {dimensionless}
    1;                       !- Sky Clearness

!----------------------------------------------------------------------------------
!--------OUTPUTS-------------------------------------------------------------------
!----------------------------------------------------------------------------------
!  Output:Surfaces:Drawing,
!    DXF;   !- Report Type
! Output:Diagnostics,
!   DisplayAdvancedReportVariables;   !- Key 1
! Output:Diagnostics,
!   DisplayExtraWarnings;   !- Key 1
! Output:VariableDictionary,
!   IDF;   !- Key Field
! OutputControl:Table:Style,
!   CommaAndHTML;   !- Column Separator
! Output:Table:SummaryReports,
!   AllSummaryAndMonthly;   !- Report 1 Name
!-   Output:Meter,Electricity:Facility,hourly;
!-   Output:Meter,Electricity:Building,hourly;
!-   Output:Meter,InteriorLights:Electricity,hourly;
!-   Output:Meter,ExteriorLights:Electricity,hourly;
!-   Output:Meter,4HA:ExteriorLights:Electricity,hourly;
!-   Output:Meter,4HA:InteriorLights:Electricity,hourly;
!-   Output:Meter,4HB:InteriorLights:Electricity,hourly;
!-   Output:Meter,4LB:InteriorLights:Electricity,hourly;
!-   Output:Meter,InteriorEquipment:Electricity,hourly;
!-   Output:Meter,4LA:InteriorEquipment:Electricity,hourly;
!-   Output:Meter,4LB:InteriorEquipment:Electricity,hourly;
!-   Output:Meter,4TX1B2:InteriorEquipment:Electricity,hourly;
!-   Output:Meter,Electricity:HVAC,hourly;
!-   Output:Meter,Fans:Electricity,hourly;
!- !Output:Meter,
!- !     ReliefFanSubMeter:Fans:Electricity,   !- Name
!- !     hourly;   !- Reporting Frequency
!-   Output:Meter,Exhaust:Fans:Electricity,hourly;
!-   Output:Meter,Pumps:Electricity,hourly;
!-   Output:Meter,DistrictCooling:Facility,hourly;
!-   Output:Meter,DistrictHeating:Facility,hourly;
!-   Output:Meter,HeatingCoils:EnergyTransfer,hourly;
!-   Output:Meter,CoolingCoils:EnergyTransfer,hourly;
!-   Output:Variable,*,Zone Total Internal Total Heating Energy,hourly;
!-   Output:Variable,*,Zone Mean Air Temperature,hourly;
!-   Output:Variable,*,Zone Thermostat Heating Setpoint Temperature,hourly;
!-   Output:Variable,*,Zone Thermostat Cooling Setpoint Temperature,hourly;
!-   Output:Variable,*,Air System Heating Coil Hot Water Energy,hourly;
!-   Output:Variable,*,Air System Fan Electric Energy,hourly;
!-   Output:Variable,*,District Heating Mass Flow Rate,hourly;
!-   Output:Variable,*,Site Outdoor Air Drybulb Temperature,hourly;
!-   Output:Variable,*,Cold Air Damper Position,hourly;
!-   Output:Variable,*,Hot Air Damper Position,hourly;
!-   Output:Variable,*,Air System Outdoor Air Economizer Status,hourly;
!-   Output:Variable,*,Air System Outdoor Air Flow Fraction,hourly;
!-   Output:Variable,*,Air System Outdoor Air Minimum Flow Fraction,hourly;
!-   Output:Variable,*,Air System Outdoor Air Mass Flow Rate,hourly;
! Output:Variable,
!   *,   !- Key Value
!   Schedule Value,   !- Variable Name
!   hourly;   !- Reporting Frequency
! Output:Variable,
!   *,   !- Key Value
!   System Node Temp,   !- Variable Name
!   hourly;   !- Reportiing Frequency
! Output:Variable,
!   *,   !- Key Value
!   System Node VolFlowRate,   !- Variable Name
!   hourly;   !- Reporting Frequency
!---------------------------------------------------------------------------------
!-----Schedules--HVAC Controls----------------------------------------------------
!---------------------------------------------------------------------------------

  ScheduleTypeLimits,
    Any Number;              !- Name

  ScheduleTypeLimits,
    On/Off,                  !- Name
    0,                       !- Lower Limit Value
    1,                       !- Upper Limit Value
    DISCRETE;                !- Numeric Type

  ScheduleTypeLimits,
    Fraction,                !- Name
    0.0,                     !- Lower Limit Value
    1.0,                     !- Upper Limit Value
    CONTINUOUS;              !- Numeric Type

  ScheduleTypeLimits,
    Temperature,             !- Name
    -60,                     !- Lower Limit Value
    200,                     !- Upper Limit Value
    CONTINUOUS;              !- Numeric Type

  ScheduleTypeLimits,
    Control Type,            !- Name
    0,                       !- Lower Limit Value
    4,                       !- Upper Limit Value
    DISCRETE;                !- Numeric Type

  Schedule:Compact,
    ON,                      !- Name
    FRACTION,                !- Schedule Type Limits Name
    Through: 12/31,          !- Field 1
    For: AllDays,            !- Field 2
    Until: 24:00,1.00;       !- Field 3

!  Schedule:Compact,
!   HTGSETP_SCH,   !- Name
!   Temperature,   !- Schedule Type Limits Name
!   Through: 12/31,   !- Field 1
!   For: Weekdays,   !- Field 2
!   Until: 05:00,   !- Field 3
!   15.6,   !- Field 4  ***adjust this for heating season weekday night
!   Until: 20:00,   !- Field 5
!   21.1,   !- Field 6   ***adjust this for heating season weekday day
!   Until: 24:00,   !- Field 7
!   15.6,   !- Field 8  ***adjust this for heating season weekday night
!   For: Weekends Holidays AllOtherDays,   !- Field 9
!   Until: 05:00,   !- Field 10
!   15.6,   !- Field 11  ***adjust this for heating season weekend night
!   Until: 20:00,   !- Field 12
!   21.1,   !- Field 13  ***adjust this for heating season weekend day
!   Until: 24:00,   !- Field 14
!   15.6;   !- Field 15  ***adjust this for heating season weekend night
! Schedule:Compact,
!   CLGSETP_SCH,   !- Name
!   Temperature,   !- Schedule Type Limits Name
!   Through: 12/31,   !- Field 1
!   For: Weekdays,   !- Field 2
!   Until: 05:00,   !- Field 3
!   @NightCoolingSetpointWeekday@,   !- Field 4   ***adjust this for cooling season weekday night
!   Until: 20:00,   !- Field 5
!   @DayCoolingSetpointWeekday@,   !- Field 6   ***adjust this for cooling season weekday day
!   Until: 24:00,   !- Field 7
!   @NightCoolingSetpointWeekday@,   !- Field 8   ***adjust this for cooling season weekday night
!   For: Weekends Holidays AllOtherDays,   !- Field 9
!   Until: 05:00,   !- Field 10
!   @NightCoolingSetpointWeekend@,   !- Field 11   ***adjust this for cooling season weekend night
!   Until: 20:00,   !- Field 12
!   @DayCoolingSetpointWeekend@,   !- Field 13   ***adjust this for cooling season weekend day
!   Until: 24:00,   !- Field 14
!   @NightCoolingSetpointWeekend@;   !- Field 15   ***adjust this for cooling season weekend night

  Schedule:Compact,
    HTGSETP_SCH_0,           !- Name
    Temperature,             !- Schedule Type Limits Name
    Through: 12/31,          !- Field 1
    For: Weekdays,           !- Field 2
    Until: 05:00,15.6,       !- Field 3
    Until: 20:00,21.1,       !- Field 5
    Until: 24:00,15.6,       !- Field 7
    For: Weekends Holidays AllOtherDays, !- Field 9
    Until: 05:00,15.6,       !- Field 10
    Until: 20:00,21.1,       !- Field 12
    Until: 24:00,15.6;       !- Field 14

  Schedule:Compact,
    CLGSETP_SCH_0,           !- Name
    Temperature,             !- Schedule Type Limits Name
    Through: 12/31,          !- Field 1
    For: Weekdays,           !- Field 2
    Until: 05:00,23.55,      !- Field 3
    Until: 20:00,23.05,      !- Field 5
    Until: 24:00,23.55,      !- Field 7
    For: Weekends Holidays AllOtherDays, !- Field 9
    Until: 05:00,24.05,      !- Field 10
    Until: 20:00,23.8,       !- Field 12
    Until: 24:00,24.05;      !- Field 14

  Schedule:Compact,
    HTGSETP_SCH_1,           !- Name
    Temperature,             !- Schedule Type Limits Name
    Through: 12/31,          !- Field 1
    For: Weekdays,           !- Field 2
    Until: 05:00,15.6,       !- Field 3
    Until: 20:00,21.1,       !- Field 5
    Until: 24:00,15.6,       !- Field 7
    For: Weekends Holidays AllOtherDays, !- Field 9
    Until: 05:00,15.6,       !- Field 10
    Until: 20:00,21.1,       !- Field 12
    Until: 24:00,15.6;       !- Field 14

  Schedule:Compact,
    CLGSETP_SCH_1,           !- Name
    Temperature,             !- Schedule Type Limits Name
    Through: 12/31,          !- Field 1
    For: Weekdays,           !- Field 2
    Until: 05:00,23.3,       !- Field 3
    Until: 20:00,23.3,       !- Field 5
    Until: 24:00,23.3,       !- Field 7
    For: Weekends Holidays AllOtherDays, !- Field 9
    Until: 05:00,24.3,       !- Field 10
    Until: 20:00,24.3,       !- Field 12
    Until: 24:00,24.3;       !- Field 14

  Schedule:Compact,
    HTGSETP_SCH_2,           !- Name
    Temperature,             !- Schedule Type Limits Name
    Through: 12/31,          !- Field 1
    For: Weekdays,           !- Field 2
    Until: 05:00,15.6,       !- Field 3
    Until: 20:00,21.1,       !- Field 5
    Until: 24:00,15.6,       !- Field 7
    For: Weekends Holidays AllOtherDays, !- Field 9
    Until: 05:00,15.6,       !- Field 10
    Until: 20:00,21.1,       !- Field 12
    Until: 24:00,15.6;       !- Field 14

  Schedule:Compact,
    CLGSETP_SCH_2,           !- Name
    Temperature,             !- Schedule Type Limits Name
    Through: 12/31,          !- Field 1
    For: Weekdays,           !- Field 2
    Until: 05:00,23.3,       !- Field 3
    Until: 20:00,23.3,       !- Field 5
    Until: 24:00,23.3,       !- Field 7
    For: Weekends Holidays AllOtherDays, !- Field 9
    Until: 05:00,24.3,       !- Field 10
    Until: 20:00,24.3,       !- Field 12
    Until: 24:00,24.3;       !- Field 14

  Schedule:Compact,
    HTGSETP_SCH_3,           !- Name
    Temperature,             !- Schedule Type Limits Name
    Through: 12/31,          !- Field 1
    For: Weekdays,           !- Field 2
    Until: 05:00,15.6,       !- Field 3
    Until: 20:00,21.1,       !- Field 5
    Until: 24:00,15.6,       !- Field 7
    For: Weekends Holidays AllOtherDays, !- Field 9
    Until: 05:00,15.6,       !- Field 10
    Until: 20:00,21.1,       !- Field 12
    Until: 24:00,15.6;       !- Field 14

  Schedule:Compact,
    CLGSETP_SCH_3,           !- Name
    Temperature,             !- Schedule Type Limits Name
    Through: 12/31,          !- Field 1
    For: Weekdays,           !- Field 2
    Until: 05:00,23.3,       !- Field 3
    Until: 20:00,23.3,       !- Field 5
    Until: 24:00,23.3,       !- Field 7
    For: Weekends Holidays AllOtherDays, !- Field 9
    Until: 05:00,24.3,       !- Field 10
    Until: 20:00,24.3,       !- Field 12
    Until: 24:00,24.3;       !- Field 14

  Schedule:Compact,
    HTGSETP_SCH_4,           !- Name
    Temperature,             !- Schedule Type Limits Name
    Through: 12/31,          !- Field 1
    For: Weekdays,           !- Field 2
    Until: 05:00,15.6,       !- Field 3
    Until: 20:00,21.1,       !- Field 5
    Until: 24:00,15.6,       !- Field 7
    For: Weekends Holidays AllOtherDays, !- Field 9
    Until: 05:00,15.6,       !- Field 10
    Until: 20:00,21.1,       !- Field 12
    Until: 24:00,15.6;       !- Field 14

  Schedule:Compact,
    CLGSETP_SCH_4,           !- Name
    Temperature,             !- Schedule Type Limits Name
    Through: 12/31,          !- Field 1
    For: Weekdays,           !- Field 2
    Until: 05:00,23.3,       !- Field 3
    Until: 20:00,23.3,       !- Field 5
    Until: 24:00,23.3,       !- Field 7
    For: Weekends Holidays AllOtherDays, !- Field 9
    Until: 05:00,24.3,       !- Field 10
    Until: 20:00,24.3,       !- Field 12
    Until: 24:00,24.3;       !- Field 14

  Schedule:Compact,
    HTGSETP_SCH_5,           !- Name
    Temperature,             !- Schedule Type Limits Name
    Through: 12/31,          !- Field 1
    For: Weekdays,           !- Field 2
    Until: 05:00,15.6,       !- Field 3
    Until: 20:00,21.1,       !- Field 5
    Until: 24:00,15.6,       !- Field 7
    For: Weekends Holidays AllOtherDays, !- Field 9
    Until: 05:00,15.6,       !- Field 10
    Until: 20:00,21.1,       !- Field 12
    Until: 24:00,15.6;       !- Field 14

  Schedule:Compact,
    CLGSETP_SCH_5,           !- Name
    Temperature,             !- Schedule Type Limits Name
    Through: 12/31,          !- Field 1
    For: Weekdays,           !- Field 2
    Until: 05:00,23.3,       !- Field 3
    Until: 20:00,23.3,       !- Field 5
    Until: 24:00,23.3,       !- Field 7
    For: Weekends Holidays AllOtherDays, !- Field 9
    Until: 05:00,24.3,       !- Field 10
    Until: 20:00,24.3,       !- Field 12
    Until: 24:00,24.3;       !- Field 14

  Schedule:Compact,
    HTGSETP_SCH_6,           !- Name
    Temperature,             !- Schedule Type Limits Name
    Through: 12/31,          !- Field 1
    For: Weekdays,           !- Field 2
    Until: 05:00,15.6,       !- Field 3
    Until: 20:00,21.1,       !- Field 5
    Until: 24:00,15.6,       !- Field 7
    For: Weekends Holidays AllOtherDays, !- Field 9
    Until: 05:00,15.6,       !- Field 10
    Until: 20:00,21.1,       !- Field 12
    Until: 24:00,15.6;       !- Field 14

  Schedule:Compact,
    CLGSETP_SCH_6,           !- Name
    Temperature,             !- Schedule Type Limits Name
    Through: 12/31,          !- Field 1
    For: Weekdays,           !- Field 2
    Until: 05:00,23.3,       !- Field 3
    Until: 20:00,23.3,       !- Field 5
    Until: 24:00,23.3,       !- Field 7
    For: Weekends Holidays AllOtherDays, !- Field 9
    Until: 05:00,24.3,       !- Field 10
    Until: 20:00,24.3,       !- Field 12
    Until: 24:00,24.3;       !- Field 14

  Schedule:Compact,
    HTGSETP_SCH_7,           !- Name
    Temperature,             !- Schedule Type Limits Name
    Through: 12/31,          !- Field 1
    For: Weekdays,           !- Field 2
    Until: 05:00,15.6,       !- Field 3
    Until: 20:00,21.1,       !- Field 5
    Until: 24:00,15.6,       !- Field 7
    For: Weekends Holidays AllOtherDays, !- Field 9
    Until: 05:00,15.6,       !- Field 10
    Until: 20:00,21.1,       !- Field 12
    Until: 24:00,15.6;       !- Field 14

  Schedule:Compact,
    CLGSETP_SCH_7,           !- Name
    Temperature,             !- Schedule Type Limits Name
    Through: 12/31,          !- Field 1
    For: Weekdays,           !- Field 2
    Until: 05:00,27.3,       !- Field 3
    Until: 20:00,23.4,       !- Field 5
    Until: 24:00,27.3,       !- Field 7
    For: Weekends Holidays AllOtherDays, !- Field 9
    Until: 05:00,23.3,       !- Field 10
    Until: 20:00,23.3,       !- Field 12
    Until: 24:00,23.3;       !- Field 14

  Schedule:Compact,
    HTGSETP_SCH_8,           !- Name
    Temperature,             !- Schedule Type Limits Name
    Through: 12/31,          !- Field 1
    For: Weekdays,           !- Field 2
    Until: 05:00,15.6,       !- Field 3
    Until: 20:00,21.1,       !- Field 5
    Until: 24:00,15.6,       !- Field 7
    For: Weekends Holidays AllOtherDays, !- Field 9
    Until: 05:00,15.6,       !- Field 10
    Until: 20:00,21.1,       !- Field 12
    Until: 24:00,15.6;       !- Field 14

  Schedule:Compact,
    CLGSETP_SCH_8,           !- Name
    Temperature,             !- Schedule Type Limits Name
    Through: 12/31,          !- Field 1
    For: Weekdays,           !- Field 2
    Until: 05:00,23.3,       !- Field 3
    Until: 20:00,23.3,       !- Field 5
    Until: 24:00,23.3,       !- Field 7
    For: Weekends Holidays AllOtherDays, !- Field 9
    Until: 05:00,24.3,       !- Field 10
    Until: 20:00,24.3,       !- Field 12
    Until: 24:00,24.3;       !- Field 14

! Schedule:Compact,
!  Dual Zone Control Type Sched,   !- Name
!  CONTROL TYPE,   !- Schedule Type Limits Name
!  Through: 12/31,   !- Field 1
!  For: Weekdays,   !- Field 2
!  4.00,   !- Field 3
!  For: Weekends Holiday AllOtherDays,   !- Field 4
!  Until: 24:00,   !- Field 5
!  4.00;   !- Field 6

  Schedule:Compact,
    Dual Zone Control Type Sched,  !- Name
    CONTROL TYPE,            !- Schedule Type Limits Name
    Through: 12/31,          !- Field 1
    For: AllDays,            !- Field 2
    Until: 24:00,4.00;       !- Field 3

  Schedule:Compact,
    COOLING SETPOINTS IT Rooms,  !- Name
    TEMPERATURE,             !- Schedule Type Limits Name
    Through: 12/31,          !- Field 1
    For: AllDays,            !- Field 2
    Until: 24:00,22.2;       !- Field 3

  Schedule:Compact,
    IT ROOM ZONE CONTROL TYPE SCHED,  !- Name
    CONTROL TYPE,            !- Schedule Type Limits Name
    Through: 12/31,          !- Field 1
    For: AllDays,            !- Field 2
    Until: 24:00,3.00;       !- Field 3

  Schedule:Compact,
    Outdoor Air Preheat Temp Sch,  !- Name
    Temperature,             !- Schedule Type Limits Name
    Through: 12/31,          !- Field 1
    For: AllDays,            !- Field 2
    Until: 24:00,7.0;        !- Field 3

  Schedule:Compact,
    Heating Supply Air Temp Sch,  !- Name
    Temperature,             !- Schedule Type Limits Name
    Through: 12/31,          !- Field 1
    For: Weekdays,           !- Field 2
    Until: 05:00,23.9,       !- Field 3
    Until: 20:00,37.8,       !- Field 5
    Until: 24:00,23.9,       !- Field 7
    For: Weekends Holidays AllOtherDays, !- Field 9
    Until: 24:00,23.9;       !- Field 10

  Schedule:Compact,
    Cooling Supply Air Temp Sch,  !- Name
    Temperature,             !- Schedule Type Limits Name
    Through: 12/31,          !- Field 1
    For: Weekdays,           !- Field 2
    Until: 05:00,16.0,       !- Field 3
    Until: 20:00,11.7,       !- Field 5
    Until: 24:00,12.8,       !- Field 7
    For: Weekends Holidays AllOtherDays, !- Field 9
    Until: 24:00,12.8;       !- Field 10

  Schedule:Compact,
    Seasonal Reset Mixed Air Temp Sch,  !- Name
    Temperature,             !- Schedule Type Limits Name
    Through: 3/31,           !- Field 1
    For: AllDays,            !- Field 2
    Until: 24:00,37.8,       !- Field 3
    Through: 9/30,           !- Field 5
    For: AllDays,            !- Field 6
    Until: 24:00,11.7,       !- Field 7
    Through: 12/31,          !- Field 9
    For: AllDays,            !- Field 10
    Until: 24:00,37.8;       !- Field 11

  Schedule:Compact,
    ChW LOOP TEMP SCHEDULE,  !- Name
    TEMPERATURE,             !- Schedule Type Limits Name
    Through: 12/31,          !- Field 1
    For: AllDays,            !- Field 2
    Until: 24:00,4.8;        !- Field 3

  Schedule:Compact,
    HW LOOP TEMP SCHEDULE,   !- Name
    TEMPERATURE,             !- Schedule Type Limits Name
    Through: 5/31,           !- Field 1
    For: AllDays,            !- Field 2
    Until: 24:00,93.3,       !- Field 3
    Through: 9/30,           !- Field 5
    For: AllDays,            !- Field 6
    Until: 24:00,48.9,       !- Field 7
    Through: 12/31,          !- Field 9
    For: AllDays,            !- Field 10
    Until: 24:00,93.3;       !- Field 11

  Schedule:Compact,
    OccupiedSched,           !- Name
    FRACTION,                !- Schedule Type Limits Name
    Through: 12/31,          !- Field 1
    For: Weekdays,           !- Field 2
    Until: 5:00,0.00,        !- Field 3
    Until: 20:00,1.0,        !- Field 5
    Until: 24:00,0.00,       !- Field 7
    For: Weekends Holiday AllOtherDays, !- Field 9
    Until: 24:00,0.00;       !- Field 10

  Schedule:Compact,
    FanAndCoilAvailSched,    !- Name
    FRACTION,                !- Schedule Type Limits Name
    Through: 12/31,          !- Field 1
    For: Weekdays,           !- Field 2
    Until: 5:00,0.00,        !- Field 3
    Until: 20:00,1.0,        !- Field 5
    Until: 24:00,0.00,       !- Field 7
    For: Weekends Holiday AllOtherDays, !- Field 9
    Until: 24:00,0.00;       !- Field 10

  Schedule:Year,
    Year_Overhang_Trans_0_5, !- Name
    ANY NUMBER,              !- Schedule Type Limits Name
    Week_Overhang_Trans_0_5, !- Schedule:Week Name 1
    1,                       !- Start Month 1
    1,                       !- Start Day 1
    12,                      !- End Month 1
    31;                      !- End Day 1

!----------------------------------------------------------------------------------------
!----------Zone DDV VAVs-----------------------------------------------------------------
!----------------------------------------------------------------------------------------

  ZoneControl:Thermostat,
    1-Hall-E Thermostat,     !- Name
    1-HALL-E,                !- Zone or ZoneList Name
    Dual Zone Control Type Sched,  !- Control Type Schedule Name
    ThermostatSetpoint:DualSetPoint,  !- Control 1 Object Type
    Dual_SetPt_Sched_0;      !- Control 1 Name

  AirTerminal:DualDuct:VAV,
    1-Hall-E-VAV MixDamp,    !- Name
    on,                      !- Availability Schedule Name
    1-Hall-E-VAV Dual Duct Outlet,  !- Air Outlet Node Name
    1-Hall-E-VAV Dual Duct Hot Inlet,  !- Hot Air Inlet Node Name
    1-Hall-E-VAV Dual Duct Cold Inlet,  !- Cold Air Inlet Node Name
    0.515,                   !- Maximum Damper Air Flow Rate {m3/s}
    0.183;                   !- Zone Minimum Air Flow Fraction

  ZoneHVAC:AirDistributionUnit,
    1-Hall-E-VAV DualDuct,   !- Name
    1-Hall-E-VAV Dual Duct Outlet,  !- Air Distribution Unit Outlet Node Name
    AirTerminal:DualDuct:VAV,!- Air Terminal Object Type
    1-Hall-E-VAV MixDamp;    !- Air Terminal Name

  ZoneHVAC:EquipmentList,
    1-Hall-E Equipment,      !- Name
    ZoneHVAC:AirDistributionUnit,  !- Zone Equipment 1 Object Type