!-Generator IDFEditor 1.31
!-Option SortedOrder UseSpecialFormat
!-NOTE: All comments with '!-' are ignored by the IDFEditor and are generated automatically.
!-      Use '!' comments if they need to be retained when using the IDFEditor.
!-   ===========  ALL OBJECTS IN CLASS: VERSION ===========

  Version,24.1;

!-   ===========  ALL OBJECTS IN CLASS: BUILDING ===========

  Building,
    ExampleForRVI,           !- Name
    0,                       !- North Axis {deg}
    Country,                 !- Terrain
    0.04,                    !- Loads Convergence Tolerance Value {W}
    0.4,                     !- Temperature Convergence Tolerance Value {deltaC}
    FullInteriorAndExterior, !- Solar Distribution
    25,                      !- Maximum Number of Warmup Days
    6;                       !- Minimum Number of Warmup Days

!-   ===========  ALL OBJECTS IN CLASS: TIMESTEP IN HOUR ===========

  Timestep,4;

!-   ===========  ALL OBJECTS IN CLASS: INSIDE CONVECTION ALGORITHM ===========

  SurfaceConvectionAlgorithm:Inside,TARP;

!-   ===========  ALL OBJECTS IN CLASS: OUTSIDE CONVECTION ALGORITHM ===========

  SurfaceConvectionAlgorithm:Outside,TARP;

!-   ===========  ALL OBJECTS IN CLASS: SOLUTION ALGORITHM ===========

  HeatBalanceAlgorithm,ConductionTransferFunction;

!-   ===========  ALL OBJECTS IN CLASS: SHADOWING CALCULATIONS ===========

  ShadowCalculation,
    PolygonClipping,         !- Shading Calculation Method
    Periodic,                !- Shading Calculation Update Frequency Method
    20;                      !- Shading Calculation Update Frequency

!-   ===========  ALL OBJECTS IN CLASS: ZONE VOLUME CAPACITANCE MULTIPLIER ===========

  ZoneCapacitanceMultiplier:ResearchSpecial,
    Multiplier,              !- Name
    ,                        !- Zone or ZoneList Name
    1.0,                     !- Temperature Capacity Multiplier
    1.0,                     !- Humidity Capacity Multiplier
    1.0,                     !- Carbon Dioxide Capacity Multiplier
    1.0;                     !- Generic Contaminant Capacity Multiplier

!-   ===========  ALL OBJECTS IN CLASS: RUN CONTROL ===========

  SimulationControl,
    Yes,                     !- Do Zone Sizing Calculation
    Yes,                     !- Do System Sizing Calculation
    No,                      !- Do Plant Sizing Calculation
    No,                      !- Run Simulation for Sizing Periods
    Yes,                     !- Run Simulation for Weather File Run Periods
    No,                      !- Do HVAC Sizing Simulation for Sizing Periods
    1;                       !- Maximum Number of HVAC Sizing Simulation Passes

!-   ===========  ALL OBJECTS IN CLASS: RUNPERIOD ===========

  RunPeriod,
    Run Period 1,            !- Name
    1,                       !- Begin Month
    1,                       !- Begin Day of Month
    ,                        !- Begin Year
    12,                      !- End Month
    31,                      !- End Day of Month
    ,                        !- End Year
    ,                        !- Day of Week for Start Day
    YES,                     !- Use Weather File Holidays and Special Days
    NO,                      !- Use Weather File Daylight Saving Period
    ,                        !- Apply Weekend Holiday Rule
    ,                        !- Use Weather File Rain Indicators
    ;                        !- Use Weather File Snow Indicators

!-   ===========  ALL OBJECTS IN CLASS: LOCATION ===========

  Site:Location,
    CHICAGO_IL_USA_WMO_725300,  !- Name
    42.00,                   !- Latitude {deg}
    -87.88,                  !- Longitude {deg}
    -6.00,                   !- Time Zone {hr}
    190.00;                  !- Elevation {m}

!-   ===========  ALL OBJECTS IN CLASS: DESIGNDAY ===========

  SizingPeriod:DesignDay,
    CHICAGO_IL_USA Heating 99.6% Conditions with Sun,  !- Name
    1,                       !- Month
    21,                      !- Day of Month
    Monday,                  !- Day Type
    -21.20000,               !- Maximum Dry-Bulb Temperature {C}
    0,                       !- Daily Dry-Bulb Temperature Range {deltaC}
    ,                        !- Dry-Bulb Temperature Range Modifier Type
    ,                        !- Dry-Bulb Temperature Range Modifier Day Schedule Name
    Wetbulb,                 !- Humidity Condition Type
    -21.20000,               !- Wetbulb or DewPoint at Maximum Dry-Bulb {C}
    ,                        !- Humidity Condition Day Schedule Name
    ,                        !- Humidity Ratio at Maximum Dry-Bulb {kgWater/kgDryAir}
    ,                        !- Enthalpy at Maximum Dry-Bulb {J/kg}
    ,                        !- Daily Wet-Bulb Temperature Range {deltaC}
    99063.21,                !- Barometric Pressure {Pa}
    4.600000,                !- Wind Speed {m/s}
    270.0000,                !- Wind Direction {deg}
    No,                      !- Rain Indicator
    No,                      !- Snow Indicator
    No,                      !- Daylight Saving Time Indicator
    ASHRAEClearSky,          !- Solar Model Indicator
    ,                        !- Beam Solar Day Schedule Name
    ,                        !- Diffuse Solar Day Schedule Name
    ,                        !- ASHRAE Clear Sky Optical Depth for Beam Irradiance (taub) {dimensionless}
    ,                        !- ASHRAE Clear Sky Optical Depth for Diffuse Irradiance (taud) {dimensionless}
    1.0000000E+00;           !- Sky Clearness

! CHICAGO_IL_USA Cooling (DB=>MWB) .4%, MaxDB=  32.80 MWB=  23.60

  SizingPeriod:DesignDay,
    CHICAGO_IL_USA Cooling .4% Conditions DB=>MWB,  !- Name
    7,                       !- Month
    21,                      !- Day of Month
    Monday,                  !- Day Type
    32.80000,                !- Maximum Dry-Bulb Temperature {C}
    10.90000,                !- Daily Dry-Bulb Temperature Range {deltaC}
    ,                        !- Dry-Bulb Temperature Range Modifier Type
    ,                        !- Dry-Bulb Temperature Range Modifier Day Schedule Name
    Wetbulb,                 !- Humidity Condition Type
    23.60000,                !- Wetbulb or DewPoint at Maximum Dry-Bulb {C}
    ,                        !- Humidity Condition Day Schedule Name
    ,                        !- Humidity Ratio at Maximum Dry-Bulb {kgWater/kgDryAir}
    ,                        !- Enthalpy at Maximum Dry-Bulb {J/kg}
    ,                        !- Daily Wet-Bulb Temperature Range {deltaC}
    99063.21,                !- Barometric Pressure {Pa}
    0,                       !- Wind Speed {m/s}
    0,                       !- Wind Direction {deg}
    No,                      !- Rain Indicator
    No,                      !- Snow Indicator
    No,                      !- Daylight Saving Time Indicator
    ASHRAEClearSky,          !- Solar Model Indicator
    ,                        !- Beam Solar Day Schedule Name
    ,                        !- Diffuse Solar Day Schedule Name
    ,                        !- ASHRAE Clear Sky Optical Depth for Beam Irradiance (taub) {dimensionless}
    ,                        !- ASHRAE Clear Sky Optical Depth for Diffuse Irradiance (taud) {dimensionless}
    1.000000;                !- Sky Clearness

!-   ===========  ALL OBJECTS IN CLASS: GROUNDTEMPERATURES ===========

  Site:GroundTemperature:BuildingSurface,18,18,18,18,18,18,18,18,18,18,18,18;

!-   ===========  ALL OBJECTS IN CLASS: GROUNDREFLECTANCES ===========

  Site:GroundReflectance,0.2,0.2,0.2,0.2,0.2,0.2,0.2,0.2,0.2,0.2,0.2,0.2;

!-   ===========  ALL OBJECTS IN CLASS: MATERIAL:REGULAR ===========

  Material,
    PLASTERBOARD-1,          !- Name
    MediumSmooth,            !- Roughness
    0.01200,                 !- Thickness {m}
    0.16000,                 !- Conductivity {W/m-K}
    950.000,                 !- Density {kg/m3}
    840.00,                  !- Specific Heat {J/kg-K}
    0.900000,                !- Thermal Absorptance
    0.600000,                !- Solar Absorptance
    0.600000;                !- Visible Absorptance

  Material,
    FIBERGLASS QUILT-1,      !- Name
    Rough,                   !- Roughness
    0.066,                   !- Thickness {m}
    0.040,                   !- Conductivity {W/m-K}
    12.000,                  !- Density {kg/m3}
    840.00,                  !- Specific Heat {J/kg-K}
    0.900000,                !- Thermal Absorptance
    0.600000,                !- Solar Absorptance
    0.600000;                !- Visible Absorptance

  Material,
    WOOD SIDING-1,           !- Name
    Rough,                   !- Roughness
    0.00900,                 !- Thickness {m}
    0.14000,                 !- Conductivity {W/m-K}
    530.000,                 !- Density {kg/m3}
    900.00,                  !- Specific Heat {J/kg-K}
    0.900000,                !- Thermal Absorptance
    0.600000,                !- Solar Absorptance
    0.600000;                !- Visible Absorptance

  Material,
    C5 - 4 IN HW CONCRETE,   !- Name
    MediumRough,             !- Roughness
    0.1000000,               !- Thickness {m}
    1.720000,                !- Conductivity {W/m-K}
    2242.580,                !- Density {kg/m3}
    830.0000,                !- Specific Heat {J/kg-K}
    0.9000000,               !- Thermal Absorptance
    0.6500000;               !- Solar Absorptance

  Material,
    PLASTERBOARD-2,          !- Name
    Rough,                   !- Roughness
    0.01000,                 !- Thickness {m}
    0.16000,                 !- Conductivity {W/m-K}
    950.000,                 !- Density {kg/m3}
    840.00,                  !- Specific Heat {J/kg-K}
    0.900000,                !- Thermal Absorptance
    0.600000,                !- Solar Absorptance
    0.600000;                !- Visible Absorptance

  Material,
    FIBERGLASS QUILT-2,      !- Name
    Rough,                   !- Roughness
    0.1118,                  !- Thickness {m}
    0.040,                   !- Conductivity {W/m-K}
    12.000,                  !- Density {kg/m3}
    840.00,                  !- Specific Heat {J/kg-K}
    0.900000,                !- Thermal Absorptance
    0.600000,                !- Solar Absorptance
    0.600000;                !- Visible Absorptance

  Material,
    ROOF DECK,               !- Name
    Rough,                   !- Roughness
    0.01900,                 !- Thickness {m}
    0.14000,                 !- Conductivity {W/m-K}
    530.000,                 !- Density {kg/m3}
    900.00,                  !- Specific Heat {J/kg-K}
    0.900000,                !- Thermal Absorptance
    0.600000,                !- Solar Absorptance
    0.600000;                !- Visible Absorptance

!-   ===========  ALL OBJECTS IN CLASS: MATERIAL:WINDOWGLASS ===========

  WindowMaterial:Glazing,
    CLEAR 6MM,               !- Name
    SpectralAverage,         !- Optical Data Type
    ,                        !- Window Glass Spectral Data Set Name
    0.006,                   !- Thickness {m}
    0.775,                   !- Solar Transmittance at Normal Incidence
    0.071,                   !- Front Side Solar Reflectance at Normal Incidence
    0.071,                   !- Back Side Solar Reflectance at Normal Incidence
    0.881,                   !- Visible Transmittance at Normal Incidence
    0.080,                   !- Front Side Visible Reflectance at Normal Incidence
    0.080,                   !- Back Side Visible Reflectance at Normal Incidence
    0.0,                     !- Infrared Transmittance at Normal Incidence
    0.84,                    !- Front Side Infrared Hemispherical Emissivity
    0.84,                    !- Back Side Infrared Hemispherical Emissivity
    0.9;                     !- Conductivity {W/m-K}

!-   ===========  ALL OBJECTS IN CLASS: MATERIAL:WINDOWGAS ===========

  WindowMaterial:Gas,
    AIR 3MM,                 !- Name
    Air,                     !- Gas Type
    0.0032;                  !- Thickness {m}

!-   ===========  ALL OBJECTS IN CLASS: CONSTRUCTION ===========

  Construction,
    LTWALL,                  !- Name
    WOOD SIDING-1,           !- Outside Layer
    FIBERGLASS QUILT-1,      !- Layer 2
    PLASTERBOARD-1;          !- Layer 3

  Construction,
    LTFLOOR,                 !- Name
    C5 - 4 IN HW CONCRETE;   !- Outside Layer

  Construction,
    LTROOF,                  !- Name
    ROOF DECK,               !- Outside Layer
    FIBERGLASS QUILT-2,      !- Layer 2
    PLASTERBOARD-2;          !- Layer 3

  Construction,
    DOUBLE PANE WINDOW,      !- Name
    CLEAR 6MM,               !- Outside Layer
    AIR 3MM,                 !- Layer 2
    CLEAR 6MM;               !- Layer 3

!-   ===========  ALL OBJECTS IN CLASS: ZONE ===========

  Zone,
    ZONE ONE,                !- Name
    0,                       !- Direction of Relative North {deg}
    0,                       !- X Origin {m}
    0,                       !- Y Origin {m}
    0,                       !- Z Origin {m}
    1,                       !- Type
    1,                       !- Multiplier
    2.7000,                  !- Ceiling Height {m}
    129.6;                   !- Volume {m3}

!-   ===========  ALL OBJECTS IN CLASS: SURFACEGEOMETRY ===========

  GlobalGeometryRules,
    UpperLeftCorner,         !- Starting Vertex Position
    Counterclockwise,        !- Vertex Entry Direction
    World;                   !- Coordinate System

!-   ===========  ALL OBJECTS IN CLASS: SURFACE:HEATTRANSFER ===========

  BuildingSurface:Detailed,
    SURFACE NORTH,           !- Name
    Wall,                    !- Surface Type
    LTWALL,                  !- Construction Name
    ZONE ONE,                !- Zone Name
    ,                        !- Space Name
    Outdoors,                !- Outside Boundary Condition
    ,                        !- Outside Boundary Condition Object
    SunExposed,              !- Sun Exposure
    WindExposed,             !- Wind Exposure
    0.50,                    !- View Factor to Ground
    4,                       !- Number of Vertices
    8.00,6.00,2.70,  !- X,Y,Z ==> Vertex 1 {m}
    8.00,6.00,0.00,  !- X,Y,Z ==> Vertex 2 {m}
    0.00,6.00,0.00,  !- X,Y,Z ==> Vertex 3 {m}
    0.00,6.00,2.70;  !- X,Y,Z ==> Vertex 4 {m}

  BuildingSurface:Detailed,
    ZONE SURFACE EAST,       !- Name
    Wall,                    !- Surface Type
    LTWALL,                  !- Construction Name
    ZONE ONE,                !- Zone Name
    ,                        !- Space Name
    Outdoors,                !- Outside Boundary Condition
    ,                        !- Outside Boundary Condition Object
    SunExposed,              !- Sun Exposure
    WindExposed,             !- Wind Exposure
    0.50,                    !- View Factor to Ground
    4,                       !- Number of Vertices
    8.00,0.00,2.70,  !- X,Y,Z ==> Vertex 1 {m}
    8.00,0.00,0.00,  !- X,Y,Z ==> Vertex 2 {m}
    8.00,6.00,0.00,  !- X,Y,Z ==> Vertex 3 {m}
    8.00,6.00,2.70;  !- X,Y,Z ==> Vertex 4 {m}

  BuildingSurface:Detailed,
    ZONE SURFACE SOUTH,      !- Name
    Wall,                    !- Surface Type
    LTWALL,                  !- Construction Name
    ZONE ONE,                !- Zone Name
    ,                        !- Space Name
    Outdoors,                !- Outside Boundary Condition
    ,                        !- Outside Boundary Condition Object
    SunExposed,              !- Sun Exposure
    WindExposed,             !- Wind Exposure
    0.50,                    !- View Factor to Ground
    4,                       !- Number of Vertices
    0.00,0.00,2.70,  !- X,Y,Z ==> Vertex 1 {m}
    0.00,0.00,0.00,  !- X,Y,Z ==> Vertex 2 {m}
    8.00,0.00,0.00,  !- X,Y,Z ==> Vertex 3 {m}
    8.00,0.00,2.70;  !- X,Y,Z ==> Vertex 4 {m}

  BuildingSurface:Detailed,
    ZONE SURFACE WEST,       !- Name
    Wall,                    !- Surface Type
    LTWALL,                  !- Construction Name
    ZONE ONE,                !- Zone Name
    ,                        !- Space Name
    Outdoors,                !- Outside Boundary Condition
    ,                        !- Outside Boundary Condition Object
    SunExposed,              !- Sun Exposure
    WindExposed,             !- Wind Exposure
    0.50,                    !- View Factor to Ground
    4,                       !- Number of Vertices
    0.00,6.00,2.70,  !- X,Y,Z ==> Vertex 1 {m}
    0.00,6.00,0.00,  !- X,Y,Z ==> Vertex 2 {m}
    0.00,0.00,0.00,  !- X,Y,Z ==> Vertex 3 {m}
    0.00,0.00,2.70;  !- X,Y,Z ==> Vertex 4 {m}

  BuildingSurface:Detailed,
    ZONE SURFACE FLOOR,      !- Name
    Floor,                   !- Surface Type
    LTFLOOR,                 !- Construction Name
    ZONE ONE,                !- Zone Name
    ,                        !- Space Name
    Ground,                  !- Outside Boundary Condition
    ,                        !- Outside Boundary Condition Object
    NoSun,                   !- Sun Exposure
    NoWind,                  !- Wind Exposure
    0.000,                   !- View Factor to Ground
    4,                       !- Number of Vertices
    0.00,0.00,0.00,  !- X,Y,Z ==> Vertex 1 {m}
    0.00,6.00,0.00,  !- X,Y,Z ==> Vertex 2 {m}
    8.00,6.00,0.00,  !- X,Y,Z ==> Vertex 3 {m}
    8.00,0.00,0.00;  !- X,Y,Z ==> Vertex 4 {m}

  BuildingSurface:Detailed,
    ZONE SURFACE ROOF,       !- Name
    Roof,                    !- Surface Type
    LTROOF,                  !- Construction Name
    ZONE ONE,                !- Zone Name
    ,                        !- Space Name
    Outdoors,                !- Outside Boundary Condition
    ,                        !- Outside Boundary Condition Object
    SunExposed,              !- Sun Exposure
    WindExposed,             !- Wind Exposure
    0.00,                    !- View Factor to Ground
    4,                       !- Number of Vertices
    0.00,6.00,2.70,  !- X,Y,Z ==> Vertex 1 {m}
    0.00,0.00,2.70,  !- X,Y,Z ==> Vertex 2 {m}
    8.00,0.00,2.70,  !- X,Y,Z ==> Vertex 3 {m}
    8.00,6.00,2.70;  !- X,Y,Z ==> Vertex 4 {m}

!-   ===========  ALL OBJECTS IN CLASS: SURFACE:HEATTRANSFER:SUB ===========

  FenestrationSurface:Detailed,
    ZONE SUBSURFACE 1 WEST WINDOW,  !- Name
    Window,                  !- Surface Type
    DOUBLE PANE WINDOW,      !- Construction Name
    ZONE SURFACE WEST,       !- Building Surface Name
    ,                        !- Outside Boundary Condition Object
    0.50,                    !- View Factor to Ground
    ,                        !- Frame and Divider Name
    1,                       !- Multiplier
    4,                       !- Number of Vertices
    0.00,4.50,2.20,  !- X,Y,Z ==> Vertex 1 {m}
    0.00,4.50,0.20,  !- X,Y,Z ==> Vertex 2 {m}
    0.00,1.50,0.20,  !- X,Y,Z ==> Vertex 3 {m}
    0.00,1.50,2.20;  !- X,Y,Z ==> Vertex 4 {m}

  FenestrationSurface:Detailed,
    ZONE SUBSURFACE 2 EAST WINDOW,  !- Name
    Window,                  !- Surface Type
    DOUBLE PANE WINDOW,      !- Construction Name
    ZONE SURFACE EAST,       !- Building Surface Name
    ,                        !- Outside Boundary Condition Object
    0.50,                    !- View Factor to Ground
    ,                        !- Frame and Divider Name
    1,                       !- Multiplier
    4,                       !- Number of Vertices
    8.00,1.50,2.20,  !- X,Y,Z ==> Vertex 1 {m}
    8.00,1.50,0.20,  !- X,Y,Z ==> Vertex 2 {m}
    8.00,4.50,0.20,  !- X,Y,Z ==> Vertex 3 {m}
    8.00,4.50,2.20;  !- X,Y,Z ==> Vertex 4 {m}

!-   ===========  ALL OBJECTS IN CLASS: SURFACE:SHADING:ATTACHED ===========

  Shading:Zone:Detailed,
    EAST WINDOW OVERHANG,    !- Name
    ZONE SURFACE EAST,       !- Base Surface Name
    SCH 2,                   !- Transmittance Schedule Name
    4,                       !- Number of Vertices
    9.00,1.50,2.70,  !- X,Y,Z ==> Vertex 1 {m}
    8.00,1.50,2.70,  !- X,Y,Z ==> Vertex 2 {m}
    8.00,4.50,2.70,  !- X,Y,Z ==> Vertex 3 {m}
    9.00,4.50,2.70;  !- X,Y,Z ==> Vertex 4 {m}

  Shading:Zone:Detailed,
    EAST WINDOW LEFT FIN,    !- Name
    ZONE SURFACE EAST,       !- Base Surface Name
    SCH 2,                   !- Transmittance Schedule Name
    4,                       !- Number of Vertices
    9.00,1.50,2.70,  !- X,Y,Z ==> Vertex 1 {m}
    9.00,1.50,0.00,  !- X,Y,Z ==> Vertex 2 {m}
    8.00,1.50,0.00,  !- X,Y,Z ==> Vertex 3 {m}
    8.00,1.50,2.70;  !- X,Y,Z ==> Vertex 4 {m}

  Shading:Zone:Detailed,
    EAST WINDOW RIGHT FIN,   !- Name
    ZONE SURFACE EAST,       !- Base Surface Name
    SCH 2,                   !- Transmittance Schedule Name
    4,                       !- Number of Vertices
    8.00,4.50,2.70,  !- X,Y,Z ==> Vertex 1 {m}
    8.00,4.50,0.00,  !- X,Y,Z ==> Vertex 2 {m}
    9.00,4.50,0.00,  !- X,Y,Z ==> Vertex 3 {m}
    9.00,4.50,2.70;  !- X,Y,Z ==> Vertex 4 {m}

!-   ===========  ALL OBJECTS IN CLASS: SCHEDULETYPE ===========

  ScheduleTypeLimits,
    Any Number;              !- Name

  ScheduleTypeLimits,
    Fraction,                !- Name
    0.0,                     !- Lower Limit Value
    1.0,                     !- Upper Limit Value
    Continuous;              !- Numeric Type

  ScheduleTypeLimits,
    Temperature,             !- Name
    -60,                     !- Lower Limit Value
    200,                     !- Upper Limit Value
    Continuous;              !- Numeric Type

  ScheduleTypeLimits,
    Control Type,            !- Name
    0,                       !- Lower Limit Value
    4,                       !- Upper Limit Value
    Discrete;                !- Numeric Type

  ScheduleTypeLimits,
    FURNACE:HEATCOOL AHU 1 Furnace with DX Cooling Cycling Schedule Type;  !- Name

!-   ===========  ALL OBJECTS IN CLASS: DAYSCHEDULE ===========

  Schedule:Day:Hourly,
    OC-1,                    !- Name
    Fraction,                !- Schedule Type Limits Name
    0.0,                     !- Hour 1
    0.0,                     !- Hour 2
    0.0,                     !- Hour 3
    0.0,                     !- Hour 4
    0.0,                     !- Hour 5
    0.0,                     !- Hour 6
    0.0,                     !- Hour 7
    0.0,                     !- Hour 8
    1.0,                     !- Hour 9
    1.0,                     !- Hour 10
    1.0,                     !- Hour 11
    1.0,                     !- Hour 12
    1.0,                     !- Hour 13
    1.0,                     !- Hour 14
    1.0,                     !- Hour 15
    1.0,                     !- Hour 16
    1.0,                     !- Hour 17
    1.0,                     !- Hour 18
    0.0,                     !- Hour 19
    0.0,                     !- Hour 20
    0.0,                     !- Hour 21
    0.0,                     !- Hour 22
    0.0,                     !- Hour 23
    0.0;                     !- Hour 24

  Schedule:Day:Hourly,
    OC-2,                    !- Name
    Fraction,                !- Schedule Type Limits Name
    0.0,                     !- Hour 1
    0.0,                     !- Hour 2
    0.0,                     !- Hour 3
    0.0,                     !- Hour 4
    0.0,                     !- Hour 5
    0.0,                     !- Hour 6
    0.0,                     !- Hour 7
    0.0,                     !- Hour 8
    0.0,                     !- Hour 9
    0.0,                     !- Hour 10
    0.0,                     !- Hour 11
    0.0,                     !- Hour 12
    0.0,                     !- Hour 13
    0.0,                     !- Hour 14
    0.0,                     !- Hour 15
    0.0,                     !- Hour 16
    0.0,                     !- Hour 17
    0.0,                     !- Hour 18
    0.0,                     !- Hour 19
    0.0,                     !- Hour 20
    0.0,                     !- Hour 21
    0.0,                     !- Hour 22
    0.0,                     !- Hour 23
    0.0;                     !- Hour 24

  Schedule:Day:Hourly,
    ActDaySchd,              !- Name
    Any Number,              !- Schedule Type Limits Name
    117.239997864,           !- Hour 1
    117.239997864,           !- Hour 2
    117.239997864,           !- Hour 3
    117.239997864,           !- Hour 4
    117.239997864,           !- Hour 5
    117.239997864,           !- Hour 6
    117.239997864,           !- Hour 7
    117.239997864,           !- Hour 8
    117.239997864,           !- Hour 9
    117.239997864,           !- Hour 10
    117.239997864,           !- Hour 11
    117.239997864,           !- Hour 12
    117.239997864,           !- Hour 13
    117.239997864,           !- Hour 14
    117.239997864,           !- Hour 15
    117.239997864,           !- Hour 16
    117.239997864,           !- Hour 17
    117.239997864,           !- Hour 18
    117.239997864,           !- Hour 19
    117.239997864,           !- Hour 20
    117.239997864,           !- Hour 21
    117.239997864,           !- Hour 22
    117.239997864,           !- Hour 23
    117.239997864;           !- Hour 24

  Schedule:Day:Hourly,
    Day Sch 1,               !- Name
    Fraction,                !- Schedule Type Limits Name
    1,                       !- Hour 1
    1,                       !- Hour 2
    1,                       !- Hour 3
    1,                       !- Hour 4
    1,                       !- Hour 5
    1,                       !- Hour 6
    1,                       !- Hour 7
    1,                       !- Hour 8
    1,                       !- Hour 9
    1,                       !- Hour 10
    1,                       !- Hour 11
    1,                       !- Hour 12
    1,                       !- Hour 13
    1,                       !- Hour 14
    1,                       !- Hour 15
    1,                       !- Hour 16
    1,                       !- Hour 17
    1,                       !- Hour 18
    1,                       !- Hour 19
    1,                       !- Hour 20
    1,                       !- Hour 21
    1,                       !- Hour 22
    1,                       !- Hour 23
    1;                       !- Hour 24

  Schedule:Day:Hourly,
    Day Sch 2,               !- Name
    Fraction,                !- Schedule Type Limits Name
    0,                       !- Hour 1
    0,                       !- Hour 2
    0,                       !- Hour 3
    0,                       !- Hour 4
    0,                       !- Hour 5
    0,                       !- Hour 6
    0,                       !- Hour 7
    0,                       !- Hour 8
    0,                       !- Hour 9
    0,                       !- Hour 10
    0,                       !- Hour 11
    0,                       !- Hour 12
    0,                       !- Hour 13
    0,                       !- Hour 14
    0,                       !- Hour 15
    0,                       !- Hour 16
    0,                       !- Hour 17
    0,                       !- Hour 18
    0,                       !- Hour 19
    0,                       !- Hour 20
    0,                       !- Hour 21
    0,                       !- Hour 22
    0,                       !- Hour 23
    0;                       !- Hour 24

  Schedule:Day:Hourly,
    Zone Heating Setpoint All Days,  !- Name
    Temperature,             !- Schedule Type Limits Name
    22.2,                    !- Hour 1
    22.2,                    !- Hour 2
    22.2,                    !- Hour 3
    22.2,                    !- Hour 4
    22.2,                    !- Hour 5
    22.2,                    !- Hour 6
    22.2,                    !- Hour 7
    22.2,                    !- Hour 8
    22.2,                    !- Hour 9
    22.2,                    !- Hour 10
    22.2,                    !- Hour 11
    22.2,                    !- Hour 12
    22.2,                    !- Hour 13
    22.2,                    !- Hour 14
    22.2,                    !- Hour 15
    22.2,                    !- Hour 16
    22.2,                    !- Hour 17
    22.2,                    !- Hour 18
    22.2,                    !- Hour 19
    22.2,                    !- Hour 20
    22.2,                    !- Hour 21
    22.2,                    !- Hour 22
    22.2,                    !- Hour 23
    22.2;                    !- Hour 24

  Schedule:Day:Hourly,
    Zone Cooling Setpoint All Days,  !- Name
    Temperature,             !- Schedule Type Limits Name
    24.,                     !- Hour 1
    24.,                     !- Hour 2
    24.,                     !- Hour 3
    24.,                     !- Hour 4
    24.,                     !- Hour 5
    24.,                     !- Hour 6
    24.,                     !- Hour 7
    24.,                     !- Hour 8
    24.,                     !- Hour 9
    24.,                     !- Hour 10
    24.,                     !- Hour 11
    24.,                     !- Hour 12
    24.,                     !- Hour 13
    24.,                     !- Hour 14
    24.,                     !- Hour 15
    24.,                     !- Hour 16
    24.,                     !- Hour 17
    24.,                     !- Hour 18
    24.,                     !- Hour 19
    24.,                     !- Hour 20
    24.,                     !- Hour 21
    24.,                     !- Hour 22
    24.,                     !- Hour 23
    24.;                     !- Hour 24

  Schedule:Day:Hourly,
    Control Type All Days,   !- Name
    Control Type,            !- Schedule Type Limits Name
    4,                       !- Hour 1
    4,                       !- Hour 2
    4,                       !- Hour 3
    4,                       !- Hour 4
    4,                       !- Hour 5
    4,                       !- Hour 6
    4,                       !- Hour 7
    4,                       !- Hour 8
    4,                       !- Hour 9
    4,                       !- Hour 10
    4,                       !- Hour 11
    4,                       !- Hour 12
    4,                       !- Hour 13
    4,                       !- Hour 14
    4,                       !- Hour 15
    4,                       !- Hour 16