!!! doe2trans version: 7622
!-------- doe2trans: LDS --------
! Translated from DOE2 input file: dummy.inp
! Title1= Green Design Tools
! Title2=
! Title3= Base Case
! Title4= \VisualDOE\Projects\40Zone1PVAV.gph
! Title5= VisualDOE 5.0.0
! \group Simulation Parameters

  Version,8.5;

  Building,
    Green Design Tools,      !- Name
    180.0017,                !- North Axis {deg}
    City,                    !- Terrain
    0.04,                    !- Loads Convergence Tolerance Value
    0.4,                     !- Temperature Convergence Tolerance Value {deltaC}
    FullExterior,            !- Solar Distribution
    25,                      !- Maximum Number of Warmup Days
    6;                       !- Minimum Number of Warmup Days

  Timestep,4;

  SurfaceConvectionAlgorithm:Inside,Simple;

  SurfaceConvectionAlgorithm:Outside,DOE-2;

  HeatBalanceAlgorithm,ConductionTransferFunction;

  ShadowCalculation,
    AverageOverDaysInFrequency,  !- Calculation Method
    20;                      !- Calculation Frequency

  Output:DebuggingData,0,0;

  ZoneCapacitanceMultiplier:ResearchSpecial,
    1.,                      !- Temperature Capacity Multiplier
    1.,                      !- Humidity Capacity Multiplier
    1.,                      !- Carbon Dioxide Capacity Multiplier
    1.0;                     !- Generic Contaminant Capacity Multiplier

  SimulationControl,
    YES,                     !- Do Zone Sizing Calculation
    YES,                     !- Do System Sizing Calculation
    YES,                     !- Do Plant Sizing Calculation
    NO,                      !- Run Simulation for Sizing Periods
    YES;                     !- Run Simulation for Weather File Run Periods

! _END_ \group Simulation Parameters
! \group Location - Climate - Weather
 !1995,  ! ! year (DOE2 only)

  RunPeriod,
    ,                        !- Name
    1,                       !- Begin Month
    1,                       !- Begin Day of Month
    12,                      !- End Month
    31,                      !- End Day of Month
    Sunday,                  !- Day of Week for Start Day
    Yes,                     !- Use Weather File Holidays and Special Days
    Yes,                     !- Use Weather File Daylight Saving Period
    Yes,                     !- Apply Weekend Holiday Rule
    Yes,                     !- Use Weather File Rain Indicators
    Yes,                     !- Use Weather File Snow Indicators
    1;                       !- Number of Times Runperiod to be Repeated

  Site:Location,
    CZ03RV2,                 !- Name
    38.5,                    !- Latitude {deg}
    -121.5,                  !- Longitude {deg}
    -8.,                     !- Time Zone {hr}
    15.24;                   !- Elevation {m}

  Site:GroundTemperature:BuildingSurface,12.38889,11.22224,11.11112,11.66668,13.8889,16.11112,18.05557,19.2778,19.38892,18.38889,16.50002,14.33334;

! _END_ \group Location - Climate - Weather
! \ Holidays

  RunPeriodControl:SpecialDays,
    Hol_1/2,                 !- Name
    1/2,                     !- Start Date
    1,                       !- Duration {days}
    Holiday;                 !- Special Day Type

  RunPeriodControl:SpecialDays,
    Hol_2/20,                !- Name
    2/20,                    !- Start Date
    1,                       !- Duration {days}
    Holiday;                 !- Special Day Type

  RunPeriodControl:SpecialDays,
    Hol_5/29,                !- Name
    5/29,                    !- Start Date
    1,                       !- Duration {days}
    Holiday;                 !- Special Day Type

  RunPeriodControl:SpecialDays,
    Hol_7/4,                 !- Name
    7/4,                     !- Start Date
    1,                       !- Duration {days}
    Holiday;                 !- Special Day Type

  RunPeriodControl:SpecialDays,
    Hol_9/4,                 !- Name
    9/4,                     !- Start Date
    1,                       !- Duration {days}
    Holiday;                 !- Special Day Type

  RunPeriodControl:SpecialDays,
    Hol_10/9,                !- Name
    10/9,                    !- Start Date
    1,                       !- Duration {days}
    Holiday;                 !- Special Day Type

  RunPeriodControl:SpecialDays,
    Hol_11/10,               !- Name
    11/10,                   !- Start Date
    1,                       !- Duration {days}
    Holiday;                 !- Special Day Type

  RunPeriodControl:SpecialDays,
    Hol_11/23,               !- Name
    11/23,                   !- Start Date
    1,                       !- Duration {days}
    Holiday;                 !- Special Day Type

  RunPeriodControl:SpecialDays,
    Hol_12/25,               !- Name
    12/25,                   !- Start Date
    1,                       !- Duration {days}
    Holiday;                 !- Special Day Type

! _END_  \ Holidays
! LDS Schedules

  ScheduleTypeLimits,
    sctAnyNumber,            !- Name
    ,                        !- Lower Limit Value
    ,                        !- Upper Limit Value
    Continuous;              !- Numeric Type

  Schedule:Compact,
    SOLGAIN1-SCH,            !- Name
    sctAnyNumber,            !- Schedule Type Limits Name
    Through: 12/31,          !- Field 1
    For: AllDays,            !- Field 2
    Until: 24:00,94.57439;   !- Field 3

  Schedule:Compact,
    VISTRAN1-SCH,            !- Name
    sctAnyNumber,            !- Schedule Type Limits Name
    Through: 12/31,          !- Field 1
    For: AllDays,            !- Field 2
    Until: 24:00,0.6;        !- Field 3

  Schedule:Compact,
    OPENSHADE1-SCH,          !- Name
    sctAnyNumber,            !- Schedule Type Limits Name
    Through: 12/31,          !- Field 1
    For: AllDays,            !- Field 2
    Until: 24:00,0.7;        !- Field 3

  Schedule:Compact,
    OffOcc,                  !- Name
    sctAnyNumber,            !- Schedule Type Limits Name
    Through: 12/31,          !- Field 1
    For: Sundays Holidays,   !- Field 2
    Until:  6:00,0.,         !- Field 3
    Until: 18:00,0.05,       !- Field 5
    Until: 24:00,0.,         !- Field 7
    For: Weekdays WinterDesignDay SummerDesignDay, !- Field 9
    Until:  6:00,0.,         !- Field 10
    Until:  7:00,0.1,        !- Field 12
    Until:  8:00,0.2,        !- Field 14
    Until: 12:00,0.95,       !- Field 16
    Until: 13:00,0.5,        !- Field 18
    Until: 17:00,0.95,       !- Field 20
    Until: 18:00,0.3,        !- Field 22
    Until: 22:00,0.1,        !- Field 24
    Until: 24:00,0.05,       !- Field 26
    For: Saturdays,          !- Field 28
    Until:  6:00,0.,         !- Field 29
    Until:  8:00,0.1,        !- Field 31
    Until: 12:00,0.3,        !- Field 33
    Until: 17:00,0.1,        !- Field 35
    Until: 19:00,0.05,       !- Field 37
    Until: 24:00,0.;         !- Field 39

  Schedule:Compact,
    OffLgt,                  !- Name
    sctAnyNumber,            !- Schedule Type Limits Name
    Through: 12/31,          !- Field 1
    For: Sundays Holidays,   !- Field 2
    Until: 24:00,0.05,       !- Field 3
    For: Weekdays WinterDesignDay SummerDesignDay, !- Field 5
    Until:  5:00,0.05,       !- Field 6
    Until:  7:00,0.1,        !- Field 8
    Until:  8:00,0.3,        !- Field 10
    Until: 12:00,0.9,        !- Field 12
    Until: 13:00,0.8,        !- Field 14
    Until: 17:00,0.9,        !- Field 16
    Until: 18:00,0.5,        !- Field 18
    Until: 20:00,0.3,        !- Field 20
    Until: 22:00,0.2,        !- Field 22
    Until: 23:00,0.1,        !- Field 24
    Until: 24:00,0.05,       !- Field 26
    For: Saturdays,          !- Field 28
    Until:  6:00,0.05,       !- Field 29
    Until:  8:00,0.1,        !- Field 31
    Until: 12:00,0.3,        !- Field 33
    Until: 17:00,0.15,       !- Field 35
    Until: 24:00,0.05;       !- Field 37

  Schedule:Compact,
    OffInf,                  !- Name
    sctAnyNumber,            !- Schedule Type Limits Name
    Through: 12/31,          !- Field 1
    For: Sundays Holidays,   !- Field 2
    Until: 24:00,1.,         !- Field 3
    For: Weekdays WinterDesignDay SummerDesignDay, !- Field 5
    Until:  6:00,1.,         !- Field 6
    Until: 22:00,0.,         !- Field 8
    Until: 24:00,1.,         !- Field 10
    For: Saturdays,          !- Field 12
    Until:  6:00,1.,         !- Field 13
    Until: 18:00,0.,         !- Field 15
    Until: 24:00,1.;         !- Field 17

! _END_ LDS Schedules
! \group Surface Construction Elements

  Material,
    CONC_4_IN_NO96__CC03_97, !- Name
    MediumRough,             !- Roughness
    0.1015898,               !- Thickness {m}
    1.310345,                !- Conductivity {W/m-K}
    2242.584,                !- Density {kg/m3}
    836.7661,                !- Specific Heat {J/kg-K}
    0.9,                     !- Thermal Absorptance
    0.7;                     !- Solar Absorptance

  Construction,
    CONC_4_IN_NO96,          !- Name
    CONC_4_IN_NO96__CC03_97; !- Outside Layer

  Material,
    SIMULATED_SL110__IN05_111,  !- Name
    MediumRough,             !- Roughness
    0.2458212,               !- Thickness {m}
    0.04324,                 !- Conductivity {W/m-K}
    9.611076,                !- Density {kg/m3}
    836.7661,                !- Specific Heat {J/kg-K}
    0.9,                     !- Thermal Absorptance
    0.;                      !- Solar Absorptance

  Material,
    SIMULATED_SL110__MAT357_112,  !- Name
    MediumRough,             !- Roughness
    0.4572,                  !- Thickness {m}
    0.8648,                  !- Conductivity {W/m-K}
    1361.569,                !- Density {kg/m3}
    836.7661,                !- Specific Heat {J/kg-K}
    0.9,                     !- Thermal Absorptance
    0.;                      !- Solar Absorptance

  Material,
    SIMULATED_SL110__MAT356_113,  !- Name
    MediumRough,             !- Roughness
    0.3048,                  !- Thickness {m}
    0.51888,                 !- Conductivity {W/m-K}
    1601.846,                !- Density {kg/m3}
    836.7661,                !- Specific Heat {J/kg-K}
    0.9,                     !- Thermal Absorptance
    0.;                      !- Solar Absorptance

  Construction,
    SIMULATED_SL110,         !- Name
    SIMULATED_SL110__IN05_111,  !- Outside Layer
    SIMULATED_SL110__MAT357_112,  !- Layer 2
    SIMULATED_SL110__MAT356_113;  !- Layer 3

  Material,
    PARTITION115__GP02_87,   !- Name
    MediumRough,             !- Roughness
    0.01588008,              !- Thickness {m}
    0.160161,                !- Conductivity {W/m-K}
    800.923,                 !- Density {kg/m3}
    836.7661,                !- Specific Heat {J/kg-K}
    0.9,                     !- Thermal Absorptance
    0.3;                     !- Solar Absorptance

  Material:NoMass,
    PARTITION115__WMF00_116, !- Name
    MediumRough,             !- Roughness
    0.1074991,               !- Thermal Resistance {m2-K/W}
    0.9,                     !- Thermal Absorptance
    0.3;                     !- Solar Absorptance

  Construction,
    PARTITION115,            !- Name
    PARTITION115__GP02_87,   !- Outside Layer
    PARTITION115__WMF00_116, !- Layer 2
    PARTITION115__GP02_87;   !- Layer 3

  Material,
    4_CONC_RADVA135__CC14_80,!- Name
    MediumRough,             !- Roughness
    0.1015898,               !- Thickness {m}
    1.801724,                !- Conductivity {W/m-K}
    2242.584,                !- Density {kg/m3}
    836.7661,                !- Specific Heat {J/kg-K}
    0.9,                     !- Thermal Absorptance
    0.7;                     !- Solar Absorptance

  Material,
    4_CONC_RADVA135__IN36_136,  !- Name
    MediumRough,             !- Roughness
    0.0762,                  !- Thickness {m}
    0.034592,                !- Conductivity {W/m-K}
    28.83323,                !- Density {kg/m3}
    1213.311,                !- Specific Heat {J/kg-K}
    0.9,                     !- Thermal Absorptance
    0.7;                     !- Solar Absorptance

  Material,
    4_CONC_RADVA135__GP02_87,!- Name
    MediumRough,             !- Roughness
    0.01588008,              !- Thickness {m}
    0.160161,                !- Conductivity {W/m-K}
    800.923,                 !- Density {kg/m3}
    836.7661,                !- Specific Heat {J/kg-K}
    0.9,                     !- Thermal Absorptance
    0.7;                     !- Solar Absorptance

  Construction,
    4_CONC_RADVA135,         !- Name
    4_CONC_RADVA135__CC14_80,!- Outside Layer
    4_CONC_RADVA135__IN36_136,  !- Layer 2
    4_CONC_RADVA135__GP02_87;!- Layer 3

  Material:NoMass,
    AIRCONS__quickConstructn,!- Name
    MediumRough,             !- Roughness
    0.06778,                 !- Thermal Resistance {m2-K/W}
    0.9,                     !- Thermal Absorptance
    0.7;                     !- Solar Absorptance

  Construction,
    AIRCONS,                 !- Name
    AIRCONS__quickConstructn;!- Outside Layer

  Material:NoMass,
    ADIABCONS__quickConstructn,  !- Name
    MediumRough,             !- Roughness
    1762.28,                 !- Thermal Resistance {m2-K/W}
    0.9,                     !- Thermal Absorptance
    0.7;                     !- Solar Absorptance

  Construction,
    ADIABCONS,               !- Name
    ADIABCONS__quickConstructn;  !- Outside Layer

! _END_ \group Surface Construction Elements
! GLASS-TYPEs

  WindowMaterial:Glazing,
    BRONZE 6MM,              !- Name
    SpectralAverage,         !- Optical Data Type
    ,                        !- Window Glass Spectral Data Set Name
    .006,                    !- Thickness {m}
    .482,                    !- Solar Transmittance at Normal Incidence
    .054,                    !- Front Side Solar Reflectance at Normal Incidence
    .054,                    !- Back Side Solar Reflectance at Normal Incidence
    .534,                    !- Visible Transmittance at Normal Incidence
    .057,                    !- Front Side Visible Reflectance at Normal Incidence
    .057,                    !- Back Side Visible Reflectance at Normal Incidence
    .0,                      !- Infrared Transmittance at Normal Incidence
    .84,                     !- Front Side Infrared Hemispherical Emissivity
    .84,                     !- Back Side Infrared Hemispherical Emissivity
    .9;                      !- Conductivity {W/m-K}

  Construction,
    GT3,                     !- Name
    BRONZE 6MM;              !- Outside Layer

! _END_ GLASS-TYPEs

  GlobalGeometryRules,
    UpperLeftCorner,         !- Starting Vertex Position
    Counterclockwise,        !- Vertex Entry Direction
    Relative;                !- Coordinate System

  Zone,
    rm1_3_C,                 !- Name
    0.,                      !- Direction of Relative North {deg}
    0.,                      !- X Origin {m}
    0.,                      !- Y Origin {m}
    0.,                      !- Z Origin {m}
    1,                       !- Type
    1,                       !- Multiplier
    3.9624,                  !- Ceiling Height {m}
    441.7421;                !- Volume {m3}

  People,
    rm1_3_C_PEOPLE,          !- Name
    rm1_3_C,                 !- Zone or ZoneList Name
    OffOcc,                  !- Number of People Schedule Name
    People,                  !- Number of People Calculation Method
    4.363636,                !- Number of People
    ,                        !- People per Zone Floor Area {person/m2}
    ,                        !- Zone Floor Area per Person {m2/person}
    0.3,                     !- Fraction Radiant
    ,                        !- Sensible Heat Fraction
    rm1_3_CActSched;         !- Activity Level Schedule Name

  Schedule:Compact,
    rm1_3_CActSched,         !- Name
    sctAnyNumber,            !- Schedule Type Limits Name
    Through: 12/31,          !- Field 1
    For: AllDays,            !- Field 2
    Until: 24:00,123.06;     !- Field 3

  Lights,
    rm1_3_C_LIGHTS,          !- Name
    rm1_3_C,                 !- Zone or ZoneList Name
    OffLgt,                  !- Schedule Name
    LightingLevel,           !- Design Level Calculation Method
    2400.,                   !- Lighting Level {W}
    ,                        !- Watts per Zone Floor Area {W/m2}
    ,                        !- Watts per Person {W/person}
    0.,                      !- Return Air Fraction
    0.59,                    !- Fraction Radiant
    0.1,                     !- Fraction Visible
    0.,                      !- Fraction Replaceable
    GeneralLights;           !- End-Use Subcategory

  ElectricEquipment,
    rm1_3_C_EQUIP,           !- Name
    rm1_3_C,                 !- Zone or ZoneList Name
    OffLgt,                  !- Schedule Name
    EquipmentLevel,          !- Design Level Calculation Method
    900.0001,                !- Design Level {W}
    ,                        !- Watts per Zone Floor Area {W/m2}
    ,                        !- Watts per Person {W/person}
    0.,                      !- Fraction Latent
    0.7,                     !- Fraction Radiant
    0.,                      !- Fraction Lost
    0;                       !- End-Use Subcategory

 !! NOTE: rMaxInfilt=0.02461021,  ! DOE2 Wind Spd Terrain Corr=0.7057271

  ZoneInfiltration:DesignFlowRate,
    rm1_3_C_INFILT,          !- Name
    rm1_3_C,                 !- Zone or ZoneList Name
    OffInf,                  !- Schedule Name
    Flow/Zone,               !- Design Flow Rate Calculation Method
    0.01736809,              !- Design Flow Rate {m3/s}
    ,                        !- Flow per Zone Floor Area {m3/s-m2}
    ,                        !- Flow per Exterior Surface Area {m3/s-m2}
    ,                        !- Air Changes per Hour {1/hr}
    0.,                      !- Constant Term Coefficient
    0.,                      !- Temperature Term Coefficient
    0.224,                   !- Velocity Term Coefficient
    0.;                      !- Velocity Squared Term Coefficient

  Material,
    rm1_3_CFURN,             !- Name
    Smooth,                  !- Roughness
    0.00762,                 !- Thickness {m}
    0.17296,                 !- Conductivity {W/m-K}
    640.7384,                !- Density {kg/m3}
    1255.149,                !- Specific Heat {J/kg-K}
    0.9,                     !- Thermal Absorptance
    0.7,                     !- Solar Absorptance
    0.7;                     !- Visible Absorptance

  Construction,
    rm1_3_CFURNCONS,         !- Name
    rm1_3_CFURN;             !- Outside Layer

  InternalMass,
    rm1_3_CFURNMASS,         !- Name
    rm1_3_CFURNCONS,         !- Construction Name
    rm1_3_C,                 !- Zone Name
    111.4836;                !- Surface Area {m2}

  BuildingSurface:Detailed,
    Wall1001,                !- Name
    Wall,                    !- Surface Type
    4_CONC_RADVA135,         !- Construction Name
    rm1_3_C,                 !- Zone Name
    Outdoors,                !- Outside Boundary Condition
    ,                        !- Outside Boundary Condition Object
    SunExposed,              !- Sun Exposure
    WindExposed,             !- Wind Exposure
    0.5,                     !- View Factor to Ground
    4,                       !- Number of Vertices
    9.144,12.192,3.962,  !- X,Y,Z ==> Vertex 1 {m}
    9.144,12.192,0.,  !- X,Y,Z ==> Vertex 2 {m}
    0.,12.192,0.,  !- X,Y,Z ==> Vertex 3 {m}
    0.,12.192,3.962;  !- X,Y,Z ==> Vertex 4 {m}

  FenestrationSurface:Detailed,
    Window1001,              !- Name
    Window,                  !- Surface Type
    GT3,                     !- Construction Name
    Wall1001,                !- Building Surface Name
    ,                        !- Outside Boundary Condition Object
    0.5,                     !- View Factor to Ground
    Window1001WSC,           !- Shading Control Name
    ,                        !- Frame and Divider Name
    1,                       !- Multiplier
    4,                       !- Number of Vertices
    8.443,12.192,2.134,  !- X,Y,Z ==> Vertex 1 {m}
    8.443,12.192,0.762,  !- X,Y,Z ==> Vertex 2 {m}
    6.767,12.192,0.762,  !- X,Y,Z ==> Vertex 3 {m}
    6.767,12.192,2.134;  !- X,Y,Z ==> Vertex 4 {m}

  WindowMaterial:Shade,
    Window1001WSM,           !- Name
    0.8,                     !- Solar Transmittance {dimensionless}
    0.19,                    !- Solar Reflectance {dimensionless}
    0.8,                     !- Visible Transmittance {dimensionless}
    0.19,                    !- Visible Reflectance {dimensionless}
    0.001,                   !- Infrared Hemispherical Emissivity {dimensionless}
    0.99,                    !- Infrared Transmittance {dimensionless}
    0.001,                   !- Thickness {m}
    10000.,                  !- Conductivity {W/m-K}
    0.001,                   !- Shade to Glass Distance {m}
    0.,                      !- Top Opening Multiplier
    0.,                      !- Bottom Opening Multiplier
    0.,                      !- Left-Side Opening Multiplier
    0.,                      !- Right-Side Opening Multiplier
    0.8;                     !- Airflow Permeability {dimensionless}

  WindowProperty:ShadingControl,
    Window1001WSC,           !- Name
    InteriorShade,           !- Shading Type
    ,                        !- Construction with Shading Name
    AlwaysOn,                !- Shading Control Type
    ,                        !- Schedule Name
    10.9383,                 !- Setpoint {W/m2, W or deg C}
    NO,                      !- Shading Control Is Scheduled
    NO,                      !- Glare Control Is Active
    Window1001WSM,           !- Shading Device Material Name
    ,                        !- Type of Slat Angle Control for Blinds
    ;                        !- Slat Angle Schedule Name

  FenestrationSurface:Detailed,
    Window3036,              !- Name
    Window,                  !- Surface Type
    GT3,                     !- Construction Name
    Wall1001,                !- Building Surface Name
    ,                        !- Outside Boundary Condition Object
    0.5,                     !- View Factor to Ground
    Window3036WSC,           !- Shading Control Name
    ,                        !- Frame and Divider Name
    1,                       !- Multiplier
    4,                       !- Number of Vertices
    5.395,12.192,2.134,  !- X,Y,Z ==> Vertex 1 {m}
    5.395,12.192,0.762,  !- X,Y,Z ==> Vertex 2 {m}
    3.719,12.192,0.762,  !- X,Y,Z ==> Vertex 3 {m}
    3.719,12.192,2.134;  !- X,Y,Z ==> Vertex 4 {m}

  WindowMaterial:Shade,
    Window3036WSM,           !- Name
    0.8,                     !- Solar Transmittance {dimensionless}
    0.19,                    !- Solar Reflectance {dimensionless}
    0.8,                     !- Visible Transmittance {dimensionless}
    0.19,                    !- Visible Reflectance {dimensionless}
    0.001,                   !- Infrared Hemispherical Emissivity {dimensionless}
    0.99,                    !- Infrared Transmittance {dimensionless}
    0.001,                   !- Thickness {m}
    10000.,                  !- Conductivity {W/m-K}
    0.001,                   !- Shade to Glass Distance {m}
    0.,                      !- Top Opening Multiplier
    0.,                      !- Bottom Opening Multiplier
    0.,                      !- Left-Side Opening Multiplier
    0.,                      !- Right-Side Opening Multiplier
    0.8;                     !- Airflow Permeability {dimensionless}

  WindowProperty:ShadingControl,
    Window3036WSC,           !- Name
    InteriorShade,           !- Shading Type
    ,                        !- Construction with Shading Name
    AlwaysOn,                !- Shading Control Type
    ,                        !- Schedule Name
    10.9383,                 !- Setpoint {W/m2, W or deg C}
    NO,                      !- Shading Control Is Scheduled
    NO,                      !- Glare Control Is Active
    Window3036WSM,           !- Shading Device Material Name
    ,                        !- Type of Slat Angle Control for Blinds
    ;                        !- Slat Angle Schedule Name

  FenestrationSurface:Detailed,
    Window3037,              !- Name
    Window,                  !- Surface Type
    GT3,                     !- Construction Name
    Wall1001,                !- Building Surface Name
    ,                        !- Outside Boundary Condition Object
    0.5,                     !- View Factor to Ground
    Window3037WSC,           !- Shading Control Name
    ,                        !- Frame and Divider Name
    1,                       !- Multiplier
    4,                       !- Number of Vertices
    2.347,12.192,2.134,  !- X,Y,Z ==> Vertex 1 {m}
    2.347,12.192,0.762,  !- X,Y,Z ==> Vertex 2 {m}
    0.671,12.192,0.762,  !- X,Y,Z ==> Vertex 3 {m}
    0.671,12.192,2.134;  !- X,Y,Z ==> Vertex 4 {m}

  WindowMaterial:Shade,
    Window3037WSM,           !- Name
    0.8,                     !- Solar Transmittance {dimensionless}
    0.19,                    !- Solar Reflectance {dimensionless}
    0.8,                     !- Visible Transmittance {dimensionless}
    0.19,                    !- Visible Reflectance {dimensionless}
    0.001,                   !- Infrared Hemispherical Emissivity {dimensionless}
    0.99,                    !- Infrared Transmittance {dimensionless}
    0.001,                   !- Thickness {m}
    10000.,                  !- Conductivity {W/m-K}
    0.001,                   !- Shade to Glass Distance {m}
    0.,                      !- Top Opening Multiplier
    0.,                      !- Bottom Opening Multiplier
    0.,                      !- Left-Side Opening Multiplier
    0.,                      !- Right-Side Opening Multiplier
    0.8;                     !- Airflow Permeability {dimensionless}

  WindowProperty:ShadingControl,
    Window3037WSC,           !- Name
    InteriorShade,           !- Shading Type
    ,                        !- Construction with Shading Name
    AlwaysOn,                !- Shading Control Type
    ,                        !- Schedule Name
    10.9383,                 !- Setpoint {W/m2, W or deg C}
    NO,                      !- Shading Control Is Scheduled
    NO,                      !- Glare Control Is Active
    Window3037WSM,           !- Shading Device Material Name
    ,                        !- Type of Slat Angle Control for Blinds
    ;                        !- Slat Angle Schedule Name

  BuildingSurface:Detailed,
    Wall1003,                !- Name
    Wall,                    !- Surface Type
    4_CONC_RADVA135,         !- Construction Name
    rm1_3_C,                 !- Zone Name
    Outdoors,                !- Outside Boundary Condition
    ,                        !- Outside Boundary Condition Object
    SunExposed,              !- Sun Exposure
    WindExposed,             !- Wind Exposure
    0.5,                     !- View Factor to Ground
    4,                       !- Number of Vertices
    0.,0.,3.962,  !- X,Y,Z ==> Vertex 1 {m}
    0.,0.,0.,  !- X,Y,Z ==> Vertex 2 {m}
    9.144,0.,0.,  !- X,Y,Z ==> Vertex 3 {m}
    9.144,0.,3.962;  !- X,Y,Z ==> Vertex 4 {m}

  FenestrationSurface:Detailed,
    Window1003,              !- Name
    Window,                  !- Surface Type
    GT3,                     !- Construction Name
    Wall1003,                !- Building Surface Name
    ,                        !- Outside Boundary Condition Object
    0.5,                     !- View Factor to Ground
    Window1003WSC,           !- Shading Control Name
    ,                        !- Frame and Divider Name
    1,                       !- Multiplier
    4,                       !- Number of Vertices
    0.701,0.,2.134,  !- X,Y,Z ==> Vertex 1 {m}
    0.701,0.,0.762,  !- X,Y,Z ==> Vertex 2 {m}
    2.377,0.,0.762,  !- X,Y,Z ==> Vertex 3 {m}
    2.377,0.,2.134;  !- X,Y,Z ==> Vertex 4 {m}

  WindowMaterial:Shade,
    Window1003WSM,           !- Name
    0.8,                     !- Solar Transmittance {dimensionless}
    0.19,                    !- Solar Reflectance {dimensionless}
    0.8,                     !- Visible Transmittance {dimensionless}
    0.19,                    !- Visible Reflectance {dimensionless}
    0.001,                   !- Infrared Hemispherical Emissivity {dimensionless}
    0.99,                    !- Infrared Transmittance {dimensionless}
    0.001,                   !- Thickness {m}
    10000.,                  !- Conductivity {W/m-K}
    0.001,                   !- Shade to Glass Distance {m}
    0.,                      !- Top Opening Multiplier
    0.,                      !- Bottom Opening Multiplier
    0.,                      !- Left-Side Opening Multiplier
    0.,                      !- Right-Side Opening Multiplier
    0.8;                     !- Airflow Permeability {dimensionless}

  WindowProperty:ShadingControl,
    Window1003WSC,           !- Name
    InteriorShade,           !- Shading Type
    ,                        !- Construction with Shading Name
    AlwaysOn,                !- Shading Control Type
    ,                        !- Schedule Name
    10.9383,                 !- Setpoint {W/m2, W or deg C}
    NO,                      !- Shading Control Is Scheduled
    NO,                      !- Glare Control Is Active
    Window1003WSM,           !- Shading Device Material Name
    ,                        !- Type of Slat Angle Control for Blinds
    ;                        !- Slat Angle Schedule Name

  FenestrationSurface:Detailed,
    Window3038,              !- Name
    Window,                  !- Surface Type
    GT3,                     !- Construction Name
    Wall1003,                !- Building Surface Name
    ,                        !- Outside Boundary Condition Object
    0.5,                     !- View Factor to Ground
    Window3038WSC,           !- Shading Control Name
    ,                        !- Frame and Divider Name
    1,                       !- Multiplier