!!!!!!!!!!!!!!!!!!!!!!!!!!!!!!!!!!!!!!!!!!!!!!!!!!!!!!!!!!!!!!!!!!!!
!!!                                                              !!!
!!!                 EFEN idf template - core                     !!!
!!!                                                              !!!
!!!!!!!!!!!!!!!!!!!!!!!!!!!!!!!!!!!!!!!!!!!!!!!!!!!!!!!!!!!!!!!!!!!!

  Version,8.4;

  Timestep,1;

  SurfaceConvectionAlgorithm:Inside,TARP;

  SurfaceConvectionAlgorithm:Outside,TARP;

  HeatBalanceAlgorithm,CTF;

  SimulationControl,
    Yes,                     !- Do Zone Sizing Calculation
    Yes,                     !- Do System Sizing Calculation
    No,                      !- Do Plant Sizing Calculation
    No,                      !- Run Simulation for Sizing Periods
    Yes;                     !- Run Simulation for Weather File Run Periods

!  Fixed Schedules - for exterior shading devices!

  Schedule:Compact,
    OVERHANGTRANSMITTANCESCHEDULE,  !- Name
    Fraction,                !- Schedule Type Limits Name
    Through: 12/31,          !- Field 1
    For: AllDays,            !- Field 2
    Until: 24:00,0.0;        !- Field 3

  Schedule:Compact,
    FINSTRANSMITTANCESCHEDULE,  !- Name
    Fraction,                !- Schedule Type Limits Name
    Through: 12/31,          !- Field 1
    For: AllDays,            !- Field 2
    Until: 24:00,0.0;        !- Field 3

!-   ===========  ALL OBJECTS IN CLASS: REPORT ===========
!  Output:Surfaces:Drawing,dxf;
!-   ===========  ALL OBJECTS IN CLASS: REPORT:TABLE:PREDEFINED ===========

  Output:Table:SummaryReports,
    ABUPS,                   !- Report 1 Name
    SystemSummary,           !- Report 2 Name
    HVACSizingSummary,       !- Report 3 Name
    WindowEnergyReportMonthly;  !- Report 4 Name

!-   ===========  ALL OBJECTS IN CLASS: REPORT:TABLE:STYLE ===========

  OutputControl:Table:Style,
    Comma;                   !- Column Separator

! *******************************************************
! *
! *  Building description
! *  Created by EFILM
! *
! *    Building type:     Hospital building
! *    Building shape:    Plus - shape
! *    Number of floors:  15
! *
! *******************************************************

  Building,
    EFILM_building,          !- Name
    0,                       !- North Axis {deg}
    Suburbs,                 !- Terrain
    0.04,                    !- Loads Convergence Tolerance Value
    0.40,                    !- Temperature Convergence Tolerance Value {deltaC}
    MinimalShadowing,        !- Solar Distribution
    2,                       !- Maximum Number of Warmup Days
    1;                       !- Minimum Number of Warmup Days

  GlobalGeometryRules,
    LowerLeftCorner,         !- Starting Vertex Position
    CounterClockWise,        !- Vertex Entry Direction
    Relative;                !- Coordinate System

  Zone,
    G_HospitalRoom_1,        !- Name
    0,                       !- Direction of Relative North {deg}
    0,                       !- X Origin {m}
    0,                       !- Y Origin {m}
    0,                       !- Z Origin {m}
    1,                       !- Type
    1,                       !- Multiplier
    4.2672,                  !- Ceiling Height {m}
    197.495523145518,        !- Volume {m3}
    autocalculate,           !- Floor Area {m2}
    ;                        !- Zone Inside Convection Algorithm

  Zone,
    G_HospitalRoom_2,        !- Name
    0,                       !- Direction of Relative North {deg}
    0,                       !- X Origin {m}
    0,                       !- Y Origin {m}
    0,                       !- Z Origin {m}
    1,                       !- Type
    1,                       !- Multiplier
    4.2672,                  !- Ceiling Height {m}
    210.967769574176,        !- Volume {m3}
    autocalculate,           !- Floor Area {m2}
    ;                        !- Zone Inside Convection Algorithm

  Zone,
    G_HospitalRoom_3,        !- Name
    0,                       !- Direction of Relative North {deg}
    0,                       !- X Origin {m}
    0,                       !- Y Origin {m}
    0,                       !- Z Origin {m}
    1,                       !- Type
    1,                       !- Multiplier
    4.2672,                  !- Ceiling Height {m}
    210.967797620152,        !- Volume {m3}
    autocalculate,           !- Floor Area {m2}
    ;                        !- Zone Inside Convection Algorithm

  Zone,
    G_HospitalRoom_4,        !- Name
    0,                       !- Direction of Relative North {deg}
    0,                       !- X Origin {m}
    0,                       !- Y Origin {m}
    0,                       !- Z Origin {m}
    1,                       !- Type
    1,                       !- Multiplier
    4.2672,                  !- Ceiling Height {m}
    197.49549689054,         !- Volume {m3}
    autocalculate,           !- Floor Area {m2}
    ;                        !- Zone Inside Convection Algorithm

  Zone,
    G_HospitalRoom_5,        !- Name
    0,                       !- Direction of Relative North {deg}
    0,                       !- X Origin {m}
    0,                       !- Y Origin {m}
    0,                       !- Z Origin {m}
    1,                       !- Type
    1,                       !- Multiplier
    4.2672,                  !- Ceiling Height {m}
    210.967769574176,        !- Volume {m3}
    autocalculate,           !- Floor Area {m2}
    ;                        !- Zone Inside Convection Algorithm

  Zone,
    G_HospitalRoom_6,        !- Name
    0,                       !- Direction of Relative North {deg}
    0,                       !- X Origin {m}
    0,                       !- Y Origin {m}
    0,                       !- Z Origin {m}
    1,                       !- Type
    1,                       !- Multiplier
    4.2672,                  !- Ceiling Height {m}
    210.967769574176,        !- Volume {m3}
    autocalculate,           !- Floor Area {m2}
    ;                        !- Zone Inside Convection Algorithm

  Zone,
    G_HospitalRoom_7,        !- Name
    0,                       !- Direction of Relative North {deg}
    0,                       !- X Origin {m}
    0,                       !- Y Origin {m}
    0,                       !- Z Origin {m}
    1,                       !- Type
    1,                       !- Multiplier
    4.2672,                  !- Ceiling Height {m}
    197.495496890539,        !- Volume {m3}
    autocalculate,           !- Floor Area {m2}
    ;                        !- Zone Inside Convection Algorithm

  Zone,
    G_HospitalRoom_8,        !- Name
    0,                       !- Direction of Relative North {deg}
    0,                       !- X Origin {m}
    0,                       !- Y Origin {m}
    0,                       !- Z Origin {m}
    1,                       !- Type
    1,                       !- Multiplier
    4.2672,                  !- Ceiling Height {m}
    210.967797620152,        !- Volume {m3}
    autocalculate,           !- Floor Area {m2}
    ;                        !- Zone Inside Convection Algorithm

  Zone,
    G_HospitalRoom_9,        !- Name
    0,                       !- Direction of Relative North {deg}
    0,                       !- X Origin {m}
    0,                       !- Y Origin {m}
    0,                       !- Z Origin {m}
    1,                       !- Type
    1,                       !- Multiplier
    4.2672,                  !- Ceiling Height {m}
    210.967769574176,        !- Volume {m3}
    autocalculate,           !- Floor Area {m2}
    ;                        !- Zone Inside Convection Algorithm

  Zone,
    G_HospitalRoom_10,       !- Name
    0,                       !- Direction of Relative North {deg}
    0,                       !- X Origin {m}
    0,                       !- Y Origin {m}
    0,                       !- Z Origin {m}
    1,                       !- Type
    1,                       !- Multiplier
    4.2672,                  !- Ceiling Height {m}
    197.495523145518,        !- Volume {m3}
    autocalculate,           !- Floor Area {m2}
    ;                        !- Zone Inside Convection Algorithm

  Zone,
    G_HospitalRoom_11,       !- Name
    0,                       !- Direction of Relative North {deg}
    0,                       !- X Origin {m}
    0,                       !- Y Origin {m}
    0,                       !- Z Origin {m}
    1,                       !- Type
    1,                       !- Multiplier
    4.2672,                  !- Ceiling Height {m}
    210.967797620153,        !- Volume {m3}
    autocalculate,           !- Floor Area {m2}
    ;                        !- Zone Inside Convection Algorithm

  Zone,
    G_HospitalRoom_12,       !- Name
    0,                       !- Direction of Relative North {deg}
    0,                       !- X Origin {m}
    0,                       !- Y Origin {m}
    0,                       !- Z Origin {m}
    1,                       !- Type
    1,                       !- Multiplier
    4.2672,                  !- Ceiling Height {m}
    210.967797620152,        !- Volume {m3}
    autocalculate,           !- Floor Area {m2}
    ;                        !- Zone Inside Convection Algorithm

  Zone,
    G_NonPublicArea,         !- Name
    0,                       !- Direction of Relative North {deg}
    0,                       !- X Origin {m}
    0,                       !- Y Origin {m}
    0,                       !- Z Origin {m}
    1,                       !- Type
    1,                       !- Multiplier
    4.2672,                  !- Ceiling Height {m}
    8277.04311523591,        !- Volume {m3}
    autocalculate,           !- Floor Area {m2}
    ;                        !- Zone Inside Convection Algorithm

  Zone,
    G_PublicArea_1,          !- Name
    0,                       !- Direction of Relative North {deg}
    0,                       !- X Origin {m}
    0,                       !- Y Origin {m}
    0,                       !- Z Origin {m}
    1,                       !- Type
    1,                       !- Multiplier
    4.2672,                  !- Ceiling Height {m}
    2881.69654395733,        !- Volume {m3}
    autocalculate,           !- Floor Area {m2}
    ;                        !- Zone Inside Convection Algorithm

  Zone,
    G_PublicArea_2,          !- Name
    0,                       !- Direction of Relative North {deg}
    0,                       !- X Origin {m}
    0,                       !- Y Origin {m}
    0,                       !- Z Origin {m}
    1,                       !- Type
    1,                       !- Multiplier
    4.2672,                  !- Ceiling Height {m}
    2881.69654395733,        !- Volume {m3}
    autocalculate,           !- Floor Area {m2}
    ;                        !- Zone Inside Convection Algorithm

  Zone,
    G_NonPublicArea_Plenum,  !- Name
    0,                       !- Direction of Relative North {deg}
    0,                       !- X Origin {m}
    0,                       !- Y Origin {m}
    0,                       !- Z Origin {m}
    1,                       !- Type
    1,                       !- Multiplier
    1,                       !- Ceiling Height {m}
    1939.68951894355,        !- Volume {m3}
    autocalculate,           !- Floor Area {m2}
    ;                        !- Zone Inside Convection Algorithm

  Zone,
    G_PublicArea_1_Plenum,   !- Name
    0,                       !- Direction of Relative North {deg}
    0,                       !- X Origin {m}
    0,                       !- Y Origin {m}
    0,                       !- Z Origin {m}
    1,                       !- Type
    1,                       !- Multiplier
    1,                       !- Ceiling Height {m}
    675.313213338332,        !- Volume {m3}
    autocalculate,           !- Floor Area {m2}
    ;                        !- Zone Inside Convection Algorithm

  Zone,
    G_PublicArea_2_Plenum,   !- Name
    0,                       !- Direction of Relative North {deg}
    0,                       !- X Origin {m}
    0,                       !- Y Origin {m}
    0,                       !- Z Origin {m}
    1,                       !- Type
    1,                       !- Multiplier
    1,                       !- Ceiling Height {m}
    675.313213338332,        !- Volume {m3}
    autocalculate,           !- Floor Area {m2}
    ;                        !- Zone Inside Convection Algorithm

  Zone,
    G_HospitalRoom_1_Plenum, !- Name
    0,                       !- Direction of Relative North {deg}
    0,                       !- X Origin {m}
    0,                       !- Y Origin {m}
    0,                       !- Z Origin {m}
    1,                       !- Type
    1,                       !- Multiplier
    1,                       !- Ceiling Height {m}
    46.2822279587359,        !- Volume {m3}
    autocalculate,           !- Floor Area {m2}
    ;                        !- Zone Inside Convection Algorithm

  Zone,
    G_HospitalRoom_2_Plenum, !- Name
    0,                       !- Direction of Relative North {deg}
    0,                       !- X Origin {m}
    0,                       !- Y Origin {m}
    0,                       !- Z Origin {m}
    1,                       !- Type
    1,                       !- Multiplier
    1,                       !- Ceiling Height {m}
    49.4393910700638,        !- Volume {m3}
    autocalculate,           !- Floor Area {m2}
    ;                        !- Zone Inside Convection Algorithm

  Zone,
    G_HospitalRoom_3_Plenum, !- Name
    0,                       !- Direction of Relative North {deg}
    0,                       !- X Origin {m}
    0,                       !- Y Origin {m}
    0,                       !- Z Origin {m}
    1,                       !- Type
    1,                       !- Multiplier
    1,                       !- Ceiling Height {m}
    49.4393976425179,        !- Volume {m3}
    autocalculate,           !- Floor Area {m2}
    ;                        !- Zone Inside Convection Algorithm

  Zone,
    G_HospitalRoom_4_Plenum, !- Name
    0,                       !- Direction of Relative North {deg}
    0,                       !- X Origin {m}
    0,                       !- Y Origin {m}
    0,                       !- Z Origin {m}
    1,                       !- Type
    1,                       !- Multiplier
    1,                       !- Ceiling Height {m}
    46.2822218059946,        !- Volume {m3}
    autocalculate,           !- Floor Area {m2}
    ;                        !- Zone Inside Convection Algorithm

  Zone,
    G_HospitalRoom_5_Plenum, !- Name
    0,                       !- Direction of Relative North {deg}
    0,                       !- X Origin {m}
    0,                       !- Y Origin {m}
    0,                       !- Z Origin {m}
    1,                       !- Type
    1,                       !- Multiplier
    1,                       !- Ceiling Height {m}
    49.4393910700638,        !- Volume {m3}
    autocalculate,           !- Floor Area {m2}
    ;                        !- Zone Inside Convection Algorithm

  Zone,
    G_HospitalRoom_6_Plenum, !- Name
    0,                       !- Direction of Relative North {deg}
    0,                       !- X Origin {m}
    0,                       !- Y Origin {m}
    0,                       !- Z Origin {m}
    1,                       !- Type
    1,                       !- Multiplier
    1,                       !- Ceiling Height {m}
    49.4393910700638,        !- Volume {m3}
    autocalculate,           !- Floor Area {m2}
    ;                        !- Zone Inside Convection Algorithm

  Zone,
    G_HospitalRoom_7_Plenum, !- Name
    0,                       !- Direction of Relative North {deg}
    0,                       !- X Origin {m}
    0,                       !- Y Origin {m}
    0,                       !- Z Origin {m}
    1,                       !- Type
    1,                       !- Multiplier
    1,                       !- Ceiling Height {m}
    46.2822218059944,        !- Volume {m3}
    autocalculate,           !- Floor Area {m2}
    ;                        !- Zone Inside Convection Algorithm

  Zone,
    G_HospitalRoom_8_Plenum, !- Name
    0,                       !- Direction of Relative North {deg}
    0,                       !- X Origin {m}
    0,                       !- Y Origin {m}
    0,                       !- Z Origin {m}
    1,                       !- Type
    1,                       !- Multiplier
    1,                       !- Ceiling Height {m}
    49.4393976425179,        !- Volume {m3}
    autocalculate,           !- Floor Area {m2}
    ;                        !- Zone Inside Convection Algorithm

  Zone,
    G_HospitalRoom_9_Plenum, !- Name
    0,                       !- Direction of Relative North {deg}
    0,                       !- X Origin {m}
    0,                       !- Y Origin {m}
    0,                       !- Z Origin {m}
    1,                       !- Type
    1,                       !- Multiplier
    1,                       !- Ceiling Height {m}
    49.4393910700638,        !- Volume {m3}
    autocalculate,           !- Floor Area {m2}
    ;                        !- Zone Inside Convection Algorithm

  Zone,
    G_HospitalRoom_10_Plenum,!- Name
    0,                       !- Direction of Relative North {deg}
    0,                       !- X Origin {m}
    0,                       !- Y Origin {m}
    0,                       !- Z Origin {m}
    1,                       !- Type
    1,                       !- Multiplier
    1,                       !- Ceiling Height {m}
    46.2822279587359,        !- Volume {m3}
    autocalculate,           !- Floor Area {m2}
    ;                        !- Zone Inside Convection Algorithm

  Zone,
    G_HospitalRoom_11_Plenum,!- Name
    0,                       !- Direction of Relative North {deg}
    0,                       !- X Origin {m}
    0,                       !- Y Origin {m}
    0,                       !- Z Origin {m}
    1,                       !- Type
    1,                       !- Multiplier
    1,                       !- Ceiling Height {m}
    49.4393976425179,        !- Volume {m3}
    autocalculate,           !- Floor Area {m2}
    ;                        !- Zone Inside Convection Algorithm

  Zone,
    G_HospitalRoom_12_Plenum,!- Name
    0,                       !- Direction of Relative North {deg}
    0,                       !- X Origin {m}
    0,                       !- Y Origin {m}
    0,                       !- Z Origin {m}
    1,                       !- Type
    1,                       !- Multiplier
    1,                       !- Ceiling Height {m}
    49.4393976425179,        !- Volume {m3}
    autocalculate,           !- Floor Area {m2}
    ;                        !- Zone Inside Convection Algorithm

  Zone,
    I1_HospitalRoom_1,       !- Name
    0,                       !- Direction of Relative North {deg}
    0,                       !- X Origin {m}
    0,                       !- Y Origin {m}
    0,                       !- Z Origin {m}
    1,                       !- Type
    1,                       !- Multiplier
    4.2672,                  !- Ceiling Height {m}
    197.495523145518,        !- Volume {m3}
    autocalculate,           !- Floor Area {m2}
    ;                        !- Zone Inside Convection Algorithm

  Zone,
    I1_HospitalRoom_2,       !- Name
    0,                       !- Direction of Relative North {deg}
    0,                       !- X Origin {m}
    0,                       !- Y Origin {m}
    0,                       !- Z Origin {m}
    1,                       !- Type
    1,                       !- Multiplier
    4.2672,                  !- Ceiling Height {m}
    210.967769574176,        !- Volume {m3}
    autocalculate,           !- Floor Area {m2}
    ;                        !- Zone Inside Convection Algorithm

  Zone,
    I1_HospitalRoom_3,       !- Name
    0,                       !- Direction of Relative North {deg}
    0,                       !- X Origin {m}
    0,                       !- Y Origin {m}
    0,                       !- Z Origin {m}
    1,                       !- Type
    1,                       !- Multiplier
    4.2672,                  !- Ceiling Height {m}
    210.967797620152,        !- Volume {m3}
    autocalculate,           !- Floor Area {m2}
    ;                        !- Zone Inside Convection Algorithm

  Zone,
    I1_HospitalRoom_4,       !- Name
    0,                       !- Direction of Relative North {deg}
    0,                       !- X Origin {m}
    0,                       !- Y Origin {m}
    0,                       !- Z Origin {m}
    1,                       !- Type
    1,                       !- Multiplier
    4.2672,                  !- Ceiling Height {m}
    197.49549689054,         !- Volume {m3}
    autocalculate,           !- Floor Area {m2}
    ;                        !- Zone Inside Convection Algorithm

  Zone,
    I1_HospitalRoom_5,       !- Name
    0,                       !- Direction of Relative North {deg}
    0,                       !- X Origin {m}
    0,                       !- Y Origin {m}
    0,                       !- Z Origin {m}
    1,                       !- Type
    1,                       !- Multiplier
    4.2672,                  !- Ceiling Height {m}
    210.967769574176,        !- Volume {m3}
    autocalculate,           !- Floor Area {m2}
    ;                        !- Zone Inside Convection Algorithm

  Zone,
    I1_HospitalRoom_6,       !- Name
    0,                       !- Direction of Relative North {deg}
    0,                       !- X Origin {m}
    0,                       !- Y Origin {m}
    0,                       !- Z Origin {m}
    1,                       !- Type
    1,                       !- Multiplier
    4.2672,                  !- Ceiling Height {m}
    210.967769574176,        !- Volume {m3}
    autocalculate,           !- Floor Area {m2}
    ;                        !- Zone Inside Convection Algorithm

  Zone,
    I1_HospitalRoom_7,       !- Name
    0,                       !- Direction of Relative North {deg}
    0,                       !- X Origin {m}
    0,                       !- Y Origin {m}
    0,                       !- Z Origin {m}
    1,                       !- Type
    1,                       !- Multiplier
    4.2672,                  !- Ceiling Height {m}
    197.495496890539,        !- Volume {m3}
    autocalculate,           !- Floor Area {m2}
    ;                        !- Zone Inside Convection Algorithm

  Zone,
    I1_HospitalRoom_8,       !- Name
    0,                       !- Direction of Relative North {deg}
    0,                       !- X Origin {m}
    0,                       !- Y Origin {m}
    0,                       !- Z Origin {m}
    1,                       !- Type
    1,                       !- Multiplier
    4.2672,                  !- Ceiling Height {m}
    210.967797620152,        !- Volume {m3}
    autocalculate,           !- Floor Area {m2}
    ;                        !- Zone Inside Convection Algorithm

  Zone,
    I1_HospitalRoom_9,       !- Name
    0,                       !- Direction of Relative North {deg}
    0,                       !- X Origin {m}
    0,                       !- Y Origin {m}
    0,                       !- Z Origin {m}
    1,                       !- Type
    1,                       !- Multiplier
    4.2672,                  !- Ceiling Height {m}
    210.967769574176,        !- Volume {m3}
    autocalculate,           !- Floor Area {m2}
    ;                        !- Zone Inside Convection Algorithm

  Zone,
    I1_HospitalRoom_10,      !- Name
    0,                       !- Direction of Relative North {deg}
    0,                       !- X Origin {m}
    0,                       !- Y Origin {m}
    0,                       !- Z Origin {m}
    1,                       !- Type
    1,                       !- Multiplier
    4.2672,                  !- Ceiling Height {m}
    197.495523145518,        !- Volume {m3}
    autocalculate,           !- Floor Area {m2}
    ;                        !- Zone Inside Convection Algorithm

  Zone,
    I1_HospitalRoom_11,      !- Name
    0,                       !- Direction of Relative North {deg}
    0,                       !- X Origin {m}
    0,                       !- Y Origin {m}
    0,                       !- Z Origin {m}
    1,                       !- Type
    1,                       !- Multiplier
    4.2672,                  !- Ceiling Height {m}
    210.967797620153,        !- Volume {m3}
    autocalculate,           !- Floor Area {m2}
    ;                        !- Zone Inside Convection Algorithm

  Zone,
    I1_HospitalRoom_12,      !- Name
    0,                       !- Direction of Relative North {deg}
    0,                       !- X Origin {m}
    0,                       !- Y Origin {m}
    0,                       !- Z Origin {m}
    1,                       !- Type
    1,                       !- Multiplier
    4.2672,                  !- Ceiling Height {m}
    210.967797620152,        !- Volume {m3}
    autocalculate,           !- Floor Area {m2}
    ;                        !- Zone Inside Convection Algorithm

  Zone,
    I1_NonPublicArea,        !- Name
    0,                       !- Direction of Relative North {deg}
    0,                       !- X Origin {m}
    0,                       !- Y Origin {m}
    0,                       !- Z Origin {m}
    1,                       !- Type
    1,                       !- Multiplier
    4.2672,                  !- Ceiling Height {m}
    8277.04311523591,        !- Volume {m3}
    autocalculate,           !- Floor Area {m2}
    ;                        !- Zone Inside Convection Algorithm

  Zone,
    I1_PublicArea_1,         !- Name
    0,                       !- Direction of Relative North {deg}
    0,                       !- X Origin {m}
    0,                       !- Y Origin {m}
    0,                       !- Z Origin {m}
    1,                       !- Type
    1,                       !- Multiplier
    4.2672,                  !- Ceiling Height {m}
    2881.69654395733,        !- Volume {m3}
    autocalculate,           !- Floor Area {m2}
    ;                        !- Zone Inside Convection Algorithm

  Zone,
    I1_PublicArea_2,         !- Name
    0,                       !- Direction of Relative North {deg}
    0,                       !- X Origin {m}
    0,                       !- Y Origin {m}
    0,                       !- Z Origin {m}
    1,                       !- Type
    1,                       !- Multiplier
    4.2672,                  !- Ceiling Height {m}
    2881.69654395733,        !- Volume {m3}
    autocalculate,           !- Floor Area {m2}
    ;                        !- Zone Inside Convection Algorithm

  Zone,
    I1_NonPublicArea_Plenum, !- Name
    0,                       !- Direction of Relative North {deg}
    0,                       !- X Origin {m}
    0,                       !- Y Origin {m}
    0,                       !- Z Origin {m}
    1,                       !- Type
    1,                       !- Multiplier
    1,                       !- Ceiling Height {m}
    1939.68951894355,        !- Volume {m3}
    autocalculate,           !- Floor Area {m2}
    ;                        !- Zone Inside Convection Algorithm

  Zone,
    I1_PublicArea_1_Plenum,  !- Name
    0,                       !- Direction of Relative North {deg}
    0,                       !- X Origin {m}
    0,                       !- Y Origin {m}
    0,                       !- Z Origin {m}
    1,                       !- Type
    1,                       !- Multiplier
    1,                       !- Ceiling Height {m}
    675.313213338332,        !- Volume {m3}
    autocalculate,           !- Floor Area {m2}
    ;                        !- Zone Inside Convection Algorithm

  Zone,
    I1_PublicArea_2_Plenum,  !- Name
    0,                       !- Direction of Relative North {deg}
    0,                       !- X Origin {m}
    0,                       !- Y Origin {m}
    0,                       !- Z Origin {m}
    1,                       !- Type
    1,                       !- Multiplier
    1,                       !- Ceiling Height {m}
    675.313213338332,        !- Volume {m3}
    autocalculate,           !- Floor Area {m2}
    ;                        !- Zone Inside Convection Algorithm

  Zone,
    I1_HospitalRoom_1_Plenum,!- Name
    0,                       !- Direction of Relative North {deg}
    0,                       !- X Origin {m}
    0,                       !- Y Origin {m}
    0,                       !- Z Origin {m}
    1,                       !- Type
    1,                       !- Multiplier
    1,                       !- Ceiling Height {m}
    46.2822279587359,        !- Volume {m3}
    autocalculate,           !- Floor Area {m2}
    ;                        !- Zone Inside Convection Algorithm

  Zone,
    I1_HospitalRoom_2_Plenum,!- Name
    0,                       !- Direction of Relative North {deg}
    0,                       !- X Origin {m}
    0,                       !- Y Origin {m}
    0,                       !- Z Origin {m}
    1,                       !- Type
    1,                       !- Multiplier
    1,                       !- Ceiling Height {m}
    49.4393910700638,        !- Volume {m3}
    autocalculate,           !- Floor Area {m2}
    ;                        !- Zone Inside Convection Algorithm

  Zone,
    I1_HospitalRoom_3_Plenum,!- Name
    0,                       !- Direction of Relative North {deg}
    0,                       !- X Origin {m}
    0,                       !- Y Origin {m}
    0,                       !- Z Origin {m}
    1,                       !- Type
    1,                       !- Multiplier
    1,                       !- Ceiling Height {m}