!-Generator IDFEditor 1.34
!-Option OriginalOrderTop UseSpecialFormat
!-NOTE: All comments with '!-' are ignored by the IDFEditor and are generated automatically.
!-      Use '!' comments if they need to be retained when using the IDFEditor.
!1ZoneUncontrolled_DD2009.idf
! Basic file description:  Basic test for EnergyPlus.  No floor.  No roof.  No Windows Just 4 walls
!
! Highlights:              Exercises ASHRAE 2009 design-day capabilities added March, 2011
!
!
! Simulation Location/Run: Atlanta, GA, 15 design days, 0 run period
!                          Run Control executes two design days (see RUN PERIOD object)
!
! Location:                Atlanta, GA
!
! Design Days:             12 month 5% cooling design temps from ASHRAE 2009 HOF
!                          ASHRAE Clear Sky Optical Depth for Diffues Irradiance (taud) and taub values for all months
!                          Additional days July 22-24 use variant wet-bulb profile generation
!
! Run Period (Weather File): none
!
! Run Control:             No zone or system sizing, design day run control (no weather file simulation)
!
! Building: Fictional 1 zone building with resistive walls.  No floor.  No Roof.
!
!           The building is oriented due north.
!
! Floor Area:        232.25 m2
! Number of Stories: 1
!
! Zone Description Details:
!
!       (0,15.24,0)                 (15.24,15.24,0)
!              _____________________________
!             |                             |
!             |                             |
!             |                             |
!             |                             |
!             |                             |
!             |                             |
!             |                             |
!             |                             |
!             |                             |
!             |                             |
!             |                             |
!             |                             |
!             |                             |
!             |                             |
!             |                             |
!             |_____________________________|
!
!          (0,0,0)                      (15.24,0,0)
!
! Internal gains description:     NA
!
! Interzone Surfaces:             None
! Internal Mass:                  None
! People:                         None
! Lights:                         None
! Equipment:                      None
! Windows:                        0
! Detached Shading:               None
! Daylight:                       None
! Natural Ventilation:            None
! Compact Schedules:              NA (no schedules)
! Solar Distribution:             MinimalShadowing
!
! HVAC:                           NA
!
! Zonal Equipment:                NA
! Central Air Handling Equipment: No
! System Equipment Autosize:      No
! Purchased Cooling:              No
! Purchased Heating:              No
! Purchased Chilled Water:        No
! Purchased Hot Water:            No
! Coils:                          None
! Pumps:                          None
! Boilers:                        None
! Chillers:                       None
! Towers:                         None
!
! Results:
! Standard Reports:               Variable Dictionary, Surfaces (dxf), Meter File
! Timestep or Hourly Variables:   Hourly and Daily
! Time bins Report:               None
! HTML Report:                    None
! Environmental Emissions:        None
! Utility Tariffs:                None

  Version,24.1;

  Timestep,4;

  Building,
    Simple One Zone (no roof-no floor),  !- Name
    0,                       !- North Axis {deg}
    Suburbs,                 !- Terrain
    .04,                     !- Loads Convergence Tolerance Value {W}
    .4,                      !- Temperature Convergence Tolerance Value {deltaC}
    MinimalShadowing,        !- Solar Distribution
    25,                      !- Maximum Number of Warmup Days
    6;                       !- Minimum Number of Warmup Days

  HeatBalanceAlgorithm,ConductionTransferFunction;

  SurfaceConvectionAlgorithm:Inside,TARP;

  SurfaceConvectionAlgorithm:Outside,DOE-2;

  SimulationControl,
    No,                      !- Do Zone Sizing Calculation
    No,                      !- Do System Sizing Calculation
    No,                      !- Do Plant Sizing Calculation
    Yes,                     !- Run Simulation for Sizing Periods
    No,                      !- Run Simulation for Weather File Run Periods
    No,                      !- Do HVAC Sizing Simulation for Sizing Periods
    1;                       !- Maximum Number of HVAC Sizing Simulation Passes

  RunPeriod,
    TestRun,                 !- Name
    1,                       !- Begin Month
    1,                       !- Begin Day of Month
    ,                        !- Begin Year
    12,                      !- End Month
    31,                      !- End Day of Month
    ,                        !- End Year
    Tuesday,                 !- Day of Week for Start Day
    Yes,                     !- Use Weather File Holidays and Special Days
    Yes,                     !- Use Weather File Daylight Saving Period
    No,                      !- Apply Weekend Holiday Rule
    Yes,                     !- Use Weather File Rain Indicators
    Yes;                     !- Use Weather File Snow Indicators

  Site:Location,
    Atlanta,                 !- Name
    33.64,                   !- Latitude {deg}
    -84.43,                  !- Longitude {deg}
    -5,                      !- Time Zone {hr}
    313;                     !- Elevation {m}

!-   ===========  ALL OBJECTS IN CLASS: DESIGNDAY ===========
! Design days, ASHRAE 2009 HOF Atlanta 5% cooling conditions, all months
!  jan   feb   mar   apr   may   jun   jul   aug   sep   oct   nov   dec
! 16.9, 18.8, 22.9, 26.4, 29.1, 31.8, 33.3, 32.4, 30.0, 25.7, 21.7, 17.9 DB
! 11.6, 11.8, 12.9, 12.8, 11.3, 11.4, 11.5, 10.8, 10.5, 11.0, 11.2, 10.9 DBDR
! 13.2, 14.0, 14.9, 17.1, 20.5, 22.3, 23.5, 23.5, 21.8, 18.5, 16.6, 14.8 MCWB
!  8.0,  7.2,  6.6,  5.5,  4.4,  3.7,  3.5,  3.4,  3.7,  4.9,  6.4,  7.4 WBDR

  SizingPeriod:DesignDay,
    Atlanta Jan 21 cooling,  !- Name
    1,                       !- Month
    21,                      !- Day of Month
    SummerDesignDay,         !- Day Type
    16.9,                    !- Maximum Dry-Bulb Temperature {C}
    11.6,                    !- Daily Dry-Bulb Temperature Range {deltaC}
    ,                        !- Dry-Bulb Temperature Range Modifier Type
    ,                        !- Dry-Bulb Temperature Range Modifier Day Schedule Name
    WetBulbProfileDefaultMultipliers,  !- Humidity Condition Type
    13.2,                    !- Wetbulb or DewPoint at Maximum Dry-Bulb {C}
    ,                        !- Humidity Condition Day Schedule Name
    ,                        !- Humidity Ratio at Maximum Dry-Bulb {kgWater/kgDryAir}
    ,                        !- Enthalpy at Maximum Dry-Bulb {J/kg}
    8,                       !- Daily Wet-Bulb Temperature Range {deltaC}
    97620,                   !- Barometric Pressure {Pa}
    0.0,                     !- Wind Speed {m/s}
    0.0,                     !- Wind Direction {deg}
    No,                      !- Rain Indicator
    No,                      !- Snow Indicator
    No,                      !- Daylight Saving Time Indicator
    ASHRAETau,               !- Solar Model Indicator
    ,                        !- Beam Solar Day Schedule Name
    ,                        !- Diffuse Solar Day Schedule Name
    .325,                    !- ASHRAE Clear Sky Optical Depth for Beam Irradiance (taub) {dimensionless}
    2.461;                   !- ASHRAE Clear Sky Optical Depth for Diffuse Irradiance (taud) {dimensionless}

  SizingPeriod:DesignDay,
    Atlanta Feb 21 cooling,  !- Name
    2,                       !- Month
    21,                      !- Day of Month
    SummerDesignDay,         !- Day Type
    18.8,                    !- Maximum Dry-Bulb Temperature {C}
    11.8,                    !- Daily Dry-Bulb Temperature Range {deltaC}
    ,                        !- Dry-Bulb Temperature Range Modifier Type
    ,                        !- Dry-Bulb Temperature Range Modifier Day Schedule Name
    WetBulbProfileDefaultMultipliers,  !- Humidity Condition Type
    14.0,                    !- Wetbulb or DewPoint at Maximum Dry-Bulb {C}
    ,                        !- Humidity Condition Day Schedule Name
    ,                        !- Humidity Ratio at Maximum Dry-Bulb {kgWater/kgDryAir}
    ,                        !- Enthalpy at Maximum Dry-Bulb {J/kg}
    7.2,                     !- Daily Wet-Bulb Temperature Range {deltaC}
    97620,                   !- Barometric Pressure {Pa}
    0.0,                     !- Wind Speed {m/s}
    0.0,                     !- Wind Direction {deg}
    No,                      !- Rain Indicator
    No,                      !- Snow Indicator
    No,                      !- Daylight Saving Time Indicator
    ASHRAETau,               !- Solar Model Indicator
    ,                        !- Beam Solar Day Schedule Name
    ,                        !- Diffuse Solar Day Schedule Name
    .349,                    !- ASHRAE Clear Sky Optical Depth for Beam Irradiance (taub) {dimensionless}
    2.316;                   !- ASHRAE Clear Sky Optical Depth for Diffuse Irradiance (taud) {dimensionless}

  SizingPeriod:DesignDay,
    Atlanta Mar 21 cooling,  !- Name
    3,                       !- Month
    21,                      !- Day of Month
    SummerDesignDay,         !- Day Type
    22.9,                    !- Maximum Dry-Bulb Temperature {C}
    12.9,                    !- Daily Dry-Bulb Temperature Range {deltaC}
    ,                        !- Dry-Bulb Temperature Range Modifier Type
    ,                        !- Dry-Bulb Temperature Range Modifier Day Schedule Name
    WetBulbProfileDefaultMultipliers,  !- Humidity Condition Type
    14.9,                    !- Wetbulb or DewPoint at Maximum Dry-Bulb {C}
    ,                        !- Humidity Condition Day Schedule Name
    ,                        !- Humidity Ratio at Maximum Dry-Bulb {kgWater/kgDryAir}
    ,                        !- Enthalpy at Maximum Dry-Bulb {J/kg}
    6.6,                     !- Daily Wet-Bulb Temperature Range {deltaC}
    97620,                   !- Barometric Pressure {Pa}
    0.0,                     !- Wind Speed {m/s}
    0.0,                     !- Wind Direction {deg}
    No,                      !- Rain Indicator
    No,                      !- Snow Indicator
    No,                      !- Daylight Saving Time Indicator
    ASHRAETau,               !- Solar Model Indicator
    ,                        !- Beam Solar Day Schedule Name
    ,                        !- Diffuse Solar Day Schedule Name
    .383,                    !- ASHRAE Clear Sky Optical Depth for Beam Irradiance (taub) {dimensionless}
    2.176;                   !- ASHRAE Clear Sky Optical Depth for Diffuse Irradiance (taud) {dimensionless}

  SizingPeriod:DesignDay,
    Atlanta Apr 21 cooling,  !- Name
    4,                       !- Month
    21,                      !- Day of Month
    SummerDesignDay,         !- Day Type
    26.4,                    !- Maximum Dry-Bulb Temperature {C}
    12.8,                    !- Daily Dry-Bulb Temperature Range {deltaC}
    ,                        !- Dry-Bulb Temperature Range Modifier Type
    ,                        !- Dry-Bulb Temperature Range Modifier Day Schedule Name
    WetBulbProfileDefaultMultipliers,  !- Humidity Condition Type
    17.1,                    !- Wetbulb or DewPoint at Maximum Dry-Bulb {C}
    ,                        !- Humidity Condition Day Schedule Name
    ,                        !- Humidity Ratio at Maximum Dry-Bulb {kgWater/kgDryAir}
    ,                        !- Enthalpy at Maximum Dry-Bulb {J/kg}
    5.5,                     !- Daily Wet-Bulb Temperature Range {deltaC}
    97620,                   !- Barometric Pressure {Pa}
    0.0,                     !- Wind Speed {m/s}
    0.0,                     !- Wind Direction {deg}
    No,                      !- Rain Indicator
    No,                      !- Snow Indicator
    No,                      !- Daylight Saving Time Indicator
    ASHRAETau,               !- Solar Model Indicator
    ,                        !- Beam Solar Day Schedule Name
    ,                        !- Diffuse Solar Day Schedule Name
    .395,                    !- ASHRAE Clear Sky Optical Depth for Beam Irradiance (taub) {dimensionless}
    2.175;                   !- ASHRAE Clear Sky Optical Depth for Diffuse Irradiance (taud) {dimensionless}

  SizingPeriod:DesignDay,
    Atlanta May 21 cooling,  !- Name
    5,                       !- Month
    21,                      !- Day of Month
    SummerDesignDay,         !- Day Type
    29.1,                    !- Maximum Dry-Bulb Temperature {C}
    11.3,                    !- Daily Dry-Bulb Temperature Range {deltaC}
    ,                        !- Dry-Bulb Temperature Range Modifier Type
    ,                        !- Dry-Bulb Temperature Range Modifier Day Schedule Name
    WetBulbProfileDefaultMultipliers,  !- Humidity Condition Type
    20.5,                    !- Wetbulb or DewPoint at Maximum Dry-Bulb {C}
    ,                        !- Humidity Condition Day Schedule Name
    ,                        !- Humidity Ratio at Maximum Dry-Bulb {kgWater/kgDryAir}
    ,                        !- Enthalpy at Maximum Dry-Bulb {J/kg}
    4.4,                     !- Daily Wet-Bulb Temperature Range {deltaC}
    97620,                   !- Barometric Pressure {Pa}
    0.0,                     !- Wind Speed {m/s}
    0.0,                     !- Wind Direction {deg}
    No,                      !- Rain Indicator
    No,                      !- Snow Indicator
    No,                      !- Daylight Saving Time Indicator
    ASHRAETau,               !- Solar Model Indicator
    ,                        !- Beam Solar Day Schedule Name
    ,                        !- Diffuse Solar Day Schedule Name
    .448,                    !- ASHRAE Clear Sky Optical Depth for Beam Irradiance (taub) {dimensionless}
    2.028;                   !- ASHRAE Clear Sky Optical Depth for Diffuse Irradiance (taud) {dimensionless}

  SizingPeriod:DesignDay,
    Atlanta Jun 21 cooling,  !- Name
    6,                       !- Month
    21,                      !- Day of Month
    SummerDesignDay,         !- Day Type
    31.8,                    !- Maximum Dry-Bulb Temperature {C}
    11.4,                    !- Daily Dry-Bulb Temperature Range {deltaC}
    ,                        !- Dry-Bulb Temperature Range Modifier Type
    ,                        !- Dry-Bulb Temperature Range Modifier Day Schedule Name
    WetBulbProfileDefaultMultipliers,  !- Humidity Condition Type
    22.3,                    !- Wetbulb or DewPoint at Maximum Dry-Bulb {C}
    ,                        !- Humidity Condition Day Schedule Name
    ,                        !- Humidity Ratio at Maximum Dry-Bulb {kgWater/kgDryAir}
    ,                        !- Enthalpy at Maximum Dry-Bulb {J/kg}
    3.7,                     !- Daily Wet-Bulb Temperature Range {deltaC}
    97620,                   !- Barometric Pressure {Pa}
    0.0,                     !- Wind Speed {m/s}
    0.0,                     !- Wind Direction {deg}
    No,                      !- Rain Indicator
    No,                      !- Snow Indicator
    No,                      !- Daylight Saving Time Indicator
    ASHRAETau,               !- Solar Model Indicator
    ,                        !- Beam Solar Day Schedule Name
    ,                        !- Diffuse Solar Day Schedule Name
    .505,                    !- ASHRAE Clear Sky Optical Depth for Beam Irradiance (taub) {dimensionless}
    1.892;                   !- ASHRAE Clear Sky Optical Depth for Diffuse Irradiance (taud) {dimensionless}

  SizingPeriod:DesignDay,
    Atlanta Jul 21 cooling,  !- Name
    7,                       !- Month
    21,                      !- Day of Month
    SummerDesignDay,         !- Day Type
    33.3,                    !- Maximum Dry-Bulb Temperature {C}
    11.5,                    !- Daily Dry-Bulb Temperature Range {deltaC}
    ,                        !- Dry-Bulb Temperature Range Modifier Type
    ,                        !- Dry-Bulb Temperature Range Modifier Day Schedule Name
    WetBulbProfileDefaultMultipliers,  !- Humidity Condition Type
    23.5,                    !- Wetbulb or DewPoint at Maximum Dry-Bulb {C}
    ,                        !- Humidity Condition Day Schedule Name
    ,                        !- Humidity Ratio at Maximum Dry-Bulb {kgWater/kgDryAir}
    ,                        !- Enthalpy at Maximum Dry-Bulb {J/kg}
    3.5,                     !- Daily Wet-Bulb Temperature Range {deltaC}
    97620,                   !- Barometric Pressure {Pa}
    0.0,                     !- Wind Speed {m/s}
    0.0,                     !- Wind Direction {deg}
    No,                      !- Rain Indicator
    No,                      !- Snow Indicator
    No,                      !- Daylight Saving Time Indicator
    ASHRAETau,               !- Solar Model Indicator
    ,                        !- Beam Solar Day Schedule Name
    ,                        !- Diffuse Solar Day Schedule Name
    .556,                    !- ASHRAE Clear Sky Optical Depth for Beam Irradiance (taub) {dimensionless}
    1.779;                   !- ASHRAE Clear Sky Optical Depth for Diffuse Irradiance (taud) {dimensionless}

  SizingPeriod:DesignDay,
    Atlanta July 22 custom WB profile,  !- Name
    7,                       !- Month
    22,                      !- Day of Month
    SummerDesignDay,         !- Day Type
    33.3,                    !- Maximum Dry-Bulb Temperature {C}
    11.5,                    !- Daily Dry-Bulb Temperature Range {deltaC}
    ,                        !- Dry-Bulb Temperature Range Modifier Type
    ,                        !- Dry-Bulb Temperature Range Modifier Day Schedule Name
    WetBulbProfileMultiplierSchedule,  !- Humidity Condition Type
    23.5,                    !- Wetbulb or DewPoint at Maximum Dry-Bulb {C}
    TDefaultProfile,         !- Humidity Condition Day Schedule Name
    ,                        !- Humidity Ratio at Maximum Dry-Bulb {kgWater/kgDryAir}
    ,                        !- Enthalpy at Maximum Dry-Bulb {J/kg}
    3.5,                     !- Daily Wet-Bulb Temperature Range {deltaC}
    97620,                   !- Barometric Pressure {Pa}
    0.0,                     !- Wind Speed {m/s}
    0.0,                     !- Wind Direction {deg}
    No,                      !- Rain Indicator
    No,                      !- Snow Indicator
    No,                      !- Daylight Saving Time Indicator
    ASHRAETau,               !- Solar Model Indicator
    ,                        !- Beam Solar Day Schedule Name
    ,                        !- Diffuse Solar Day Schedule Name
    .556,                    !- ASHRAE Clear Sky Optical Depth for Beam Irradiance (taub) {dimensionless}
    1.779;                   !- ASHRAE Clear Sky Optical Depth for Diffuse Irradiance (taud) {dimensionless}

  SizingPeriod:DesignDay,
    Atlanta July 23 custom DB/WB profile,  !- Name
    7,                       !- Month
    23,                      !- Day of Month
    SummerDesignDay,         !- Day Type
    33.3,                    !- Maximum Dry-Bulb Temperature {C}
    11.5,                    !- Daily Dry-Bulb Temperature Range {deltaC}
    MultiplierSchedule,      !- Dry-Bulb Temperature Range Modifier Type
    TDefaultProfile,         !- Dry-Bulb Temperature Range Modifier Day Schedule Name
    WetBulbProfileMultiplierSchedule,  !- Humidity Condition Type
    23.5,                    !- Wetbulb or DewPoint at Maximum Dry-Bulb {C}
    TDefaultProfile,         !- Humidity Condition Day Schedule Name
    ,                        !- Humidity Ratio at Maximum Dry-Bulb {kgWater/kgDryAir}
    ,                        !- Enthalpy at Maximum Dry-Bulb {J/kg}
    3.5,                     !- Daily Wet-Bulb Temperature Range {deltaC}
    97620,                   !- Barometric Pressure {Pa}
    0.0,                     !- Wind Speed {m/s}
    0.0,                     !- Wind Direction {deg}
    No,                      !- Rain Indicator
    No,                      !- Snow Indicator
    No,                      !- Daylight Saving Time Indicator
    ASHRAETau,               !- Solar Model Indicator
    ,                        !- Beam Solar Day Schedule Name
    ,                        !- Diffuse Solar Day Schedule Name
    .556,                    !- ASHRAE Clear Sky Optical Depth for Beam Irradiance (taub) {dimensionless}
    1.779;                   !- ASHRAE Clear Sky Optical Depth for Diffuse Irradiance (taud) {dimensionless}

! identical to default profile, results s/b same

  Schedule:Day:Hourly,
    TDefaultProfile,         !- Name
    Fraction,                !- Schedule Type Limits Name
    .88,                     !- Hour 1
    .92,                     !- Hour 2
    .95,                     !- Hour 3
    .98,                     !- Hour 4
    1.0,                     !- Hour 5
    .98,                     !- Hour 6
    .91,                     !- Hour 7
    .74,                     !- Hour 8
    .55,                     !- Hour 9
    .38,                     !- Hour 10
    .23,                     !- Hour 11
    .13,                     !- Hour 12
    .05,                     !- Hour 13
    0,                       !- Hour 14
    0,                       !- Hour 15
    .06,                     !- Hour 16
    .14,                     !- Hour 17
    .24,                     !- Hour 18
    .39,                     !- Hour 19
    .50,                     !- Hour 20
    .59,                     !- Hour 21
    .68,                     !- Hour 22
    .75,                     !- Hour 23
    .82;                     !- Hour 24

  SizingPeriod:DesignDay,
    Atlanta Jul 24 WB diff schedule,  !- Name
    7,                       !- Month
    24,                      !- Day of Month
    SummerDesignDay,         !- Day Type
    33.3,                    !- Maximum Dry-Bulb Temperature {C}
    11.5,                    !- Daily Dry-Bulb Temperature Range {deltaC}
    ,                        !- Dry-Bulb Temperature Range Modifier Type
    ,                        !- Dry-Bulb Temperature Range Modifier Day Schedule Name
    WetBulbProfileDifferenceSchedule,  !- Humidity Condition Type
    23.5,                    !- Wetbulb or DewPoint at Maximum Dry-Bulb {C}
    WBDifProfile,            !- Humidity Condition Day Schedule Name
    ,                        !- Humidity Ratio at Maximum Dry-Bulb {kgWater/kgDryAir}
    ,                        !- Enthalpy at Maximum Dry-Bulb {J/kg}
    8,                       !- Daily Wet-Bulb Temperature Range {deltaC}
    97620,                   !- Barometric Pressure {Pa}
    0.0,                     !- Wind Speed {m/s}
    0.0,                     !- Wind Direction {deg}
    No,                      !- Rain Indicator
    No,                      !- Snow Indicator
    No,                      !- Daylight Saving Time Indicator
    ASHRAETau,               !- Solar Model Indicator
    ,                        !- Beam Solar Day Schedule Name
    ,                        !- Diffuse Solar Day Schedule Name
    .556,                    !- ASHRAE Clear Sky Optical Depth for Beam Irradiance (taub) {dimensionless}
    1.779;                   !- ASHRAE Clear Sky Optical Depth for Diffuse Irradiance (taud) {dimensionless}

  Schedule:Day:Hourly,
    WBDifProfile,            !- Name
    Any Number,              !- Schedule Type Limits Name
    0,                       !- Hour 1
    1,                       !- Hour 2
    2,                       !- Hour 3
    3,                       !- Hour 4
    4,                       !- Hour 5
    5,                       !- Hour 6
    6,                       !- Hour 7
    7,                       !- Hour 8
    8,                       !- Hour 9
    9,                       !- Hour 10
    10,                      !- Hour 11
    11,                      !- Hour 12
    12,                      !- Hour 13
    11,                      !- Hour 14
    10,                      !- Hour 15
    9,                       !- Hour 16
    8,                       !- Hour 17
    7,                       !- Hour 18
    6,                       !- Hour 19
    5,                       !- Hour 20
    4,                       !- Hour 21
    3,                       !- Hour 22
    2,                       !- Hour 23
    1;                       !- Hour 24

  SizingPeriod:DesignDay,
    Atlanta Aug 21 cooling,  !- Name
    8,                       !- Month
    21,                      !- Day of Month
    SummerDesignDay,         !- Day Type
    32.4,                    !- Maximum Dry-Bulb Temperature {C}
    10.8,                    !- Daily Dry-Bulb Temperature Range {deltaC}
    ,                        !- Dry-Bulb Temperature Range Modifier Type
    ,                        !- Dry-Bulb Temperature Range Modifier Day Schedule Name
    WetBulbProfileDefaultMultipliers,  !- Humidity Condition Type
    23.5,                    !- Wetbulb or DewPoint at Maximum Dry-Bulb {C}
    ,                        !- Humidity Condition Day Schedule Name
    ,                        !- Humidity Ratio at Maximum Dry-Bulb {kgWater/kgDryAir}
    ,                        !- Enthalpy at Maximum Dry-Bulb {J/kg}
    3.4,                     !- Daily Wet-Bulb Temperature Range {deltaC}
    97620,                   !- Barometric Pressure {Pa}
    0.0,                     !- Wind Speed {m/s}
    0.0,                     !- Wind Direction {deg}
    No,                      !- Rain Indicator
    No,                      !- Snow Indicator
    No,                      !- Daylight Saving Time Indicator
    ASHRAETau,               !- Solar Model Indicator
    ,                        !- Beam Solar Day Schedule Name
    ,                        !- Diffuse Solar Day Schedule Name
    .593,                    !- ASHRAE Clear Sky Optical Depth for Beam Irradiance (taub) {dimensionless}
    1.679;                   !- ASHRAE Clear Sky Optical Depth for Diffuse Irradiance (taud) {dimensionless}

  SizingPeriod:DesignDay,
    Atlanta Sep 21 cooling,  !- Name
    9,                       !- Month
    21,                      !- Day of Month
    SummerDesignDay,         !- Day Type
    30.0,                    !- Maximum Dry-Bulb Temperature {C}
    10.5,                    !- Daily Dry-Bulb Temperature Range {deltaC}
    ,                        !- Dry-Bulb Temperature Range Modifier Type
    ,                        !- Dry-Bulb Temperature Range Modifier Day Schedule Name
    WetBulbProfileDefaultMultipliers,  !- Humidity Condition Type
    21.8,                    !- Wetbulb or DewPoint at Maximum Dry-Bulb {C}
    ,                        !- Humidity Condition Day Schedule Name
    ,                        !- Humidity Ratio at Maximum Dry-Bulb {kgWater/kgDryAir}
    ,                        !- Enthalpy at Maximum Dry-Bulb {J/kg}
    3.7,                     !- Daily Wet-Bulb Temperature Range {deltaC}
    97620,                   !- Barometric Pressure {Pa}
    0.0,                     !- Wind Speed {m/s}
    0.0,                     !- Wind Direction {deg}
    No,                      !- Rain Indicator
    No,                      !- Snow Indicator
    No,                      !- Daylight Saving Time Indicator
    ASHRAETau,               !- Solar Model Indicator
    ,                        !- Beam Solar Day Schedule Name
    ,                        !- Diffuse Solar Day Schedule Name
    .431,                    !- ASHRAE Clear Sky Optical Depth for Beam Irradiance (taub) {dimensionless}
    2.151;                   !- ASHRAE Clear Sky Optical Depth for Diffuse Irradiance (taud) {dimensionless}

  SizingPeriod:DesignDay,
    Atlanta Oct 21 cooling,  !- Name
    10,                      !- Month
    21,                      !- Day of Month
    SummerDesignDay,         !- Day Type
    25.7,                    !- Maximum Dry-Bulb Temperature {C}
    11.0,                    !- Daily Dry-Bulb Temperature Range {deltaC}
    ,                        !- Dry-Bulb Temperature Range Modifier Type
    ,                        !- Dry-Bulb Temperature Range Modifier Day Schedule Name
    WetBulbProfileDefaultMultipliers,  !- Humidity Condition Type
    18.5,                    !- Wetbulb or DewPoint at Maximum Dry-Bulb {C}
    ,                        !- Humidity Condition Day Schedule Name
    ,                        !- Humidity Ratio at Maximum Dry-Bulb {kgWater/kgDryAir}
    ,                        !- Enthalpy at Maximum Dry-Bulb {J/kg}
    4.9,                     !- Daily Wet-Bulb Temperature Range {deltaC}
    97620,                   !- Barometric Pressure {Pa}
    0.0,                     !- Wind Speed {m/s}
    0.0,                     !- Wind Direction {deg}
    No,                      !- Rain Indicator
    No,                      !- Snow Indicator
    No,                      !- Daylight Saving Time Indicator
    ASHRAETau,               !- Solar Model Indicator
    ,                        !- Beam Solar Day Schedule Name
    ,                        !- Diffuse Solar Day Schedule Name
    .373,                    !- ASHRAE Clear Sky Optical Depth for Beam Irradiance (taub) {dimensionless}
    2.317;                   !- ASHRAE Clear Sky Optical Depth for Diffuse Irradiance (taud) {dimensionless}

  SizingPeriod:DesignDay,
    Atlanta Nov 21 cooling,  !- Name
    11,                      !- Month
    21,                      !- Day of Month
    SummerDesignDay,         !- Day Type
    21.7,                    !- Maximum Dry-Bulb Temperature {C}
    11.2,                    !- Daily Dry-Bulb Temperature Range {deltaC}