!-Generator IDFEditor 1.34
!-Option SortedOrder
!-NOTE: All comments with '!-' are ignored by the IDFEditor and are generated automatically.
!-      Use '!' comments if they need to be retained when using the IDFEditor.
!1ZoneUncontrolledCondFDWithVariableKat24C.idf
!-   ===========  ALL OBJECTS IN CLASS: VERSION ===========

  Version,24.1;

!-   ===========  ALL OBJECTS IN CLASS: SIMULATIONCONTROL ===========

  SimulationControl,
    No,                      !- Do Zone Sizing Calculation
    No,                      !- Do System Sizing Calculation
    No,                      !- Do Plant Sizing Calculation
    Yes,                     !- Run Simulation for Sizing Periods
    No,                      !- Run Simulation for Weather File Run Periods
    No,                      !- Do HVAC Sizing Simulation for Sizing Periods
    1;                       !- Maximum Number of HVAC Sizing Simulation Passes

!-   ===========  ALL OBJECTS IN CLASS: BUILDING ===========

  Building,
    Simple One Zone (Wireframe DXF),  !- Name
    0,                       !- North Axis {deg}
    Suburbs,                 !- Terrain
    0.04,                    !- Loads Convergence Tolerance Value {W}
    0.004,                   !- Temperature Convergence Tolerance Value {deltaC}
    MinimalShadowing,        !- Solar Distribution
    30,                      !- Maximum Number of Warmup Days
    6;                       !- Minimum Number of Warmup Days

!-   ===========  ALL OBJECTS IN CLASS: SURFACECONVECTIONALGORITHM:INSIDE ===========

  SurfaceConvectionAlgorithm:Inside,TARP;

!-   ===========  ALL OBJECTS IN CLASS: SURFACECONVECTIONALGORITHM:OUTSIDE ===========

  SurfaceConvectionAlgorithm:Outside,TARP;

!-   ===========  ALL OBJECTS IN CLASS: HEATBALANCEALGORITHM ===========

  HeatBalanceAlgorithm,ConductionFiniteDifference;

!-   ===========  ALL OBJECTS IN CLASS: TIMESTEP ===========

  Timestep,20;

!-   ===========  ALL OBJECTS IN CLASS: SITE:LOCATION ===========

  Site:Location,
    Denver Centennial  Golden   N_CO_USA Design_Conditions,  !- Name
    39.74,                   !- Latitude {deg}
    -105.18,                 !- Longitude {deg}
    -7.00,                   !- Time Zone {hr}
    1829.00;                 !- Elevation {m}

!-   ===========  ALL OBJECTS IN CLASS: SIZINGPERIOD:DESIGNDAY ===========

  SizingPeriod:DesignDay,
    Denver Centennial Golden Intl Arpt Ann Htg 99% Condns DB,  !- Name
    12,                      !- Month
    21,                      !- Day of Month
    WinterDesignDay,         !- Day Type
    -16,                     !- Maximum Dry-Bulb Temperature {C}
    0.0,                     !- Daily Dry-Bulb Temperature Range {deltaC}
    ,                        !- Dry-Bulb Temperature Range Modifier Type
    ,                        !- Dry-Bulb Temperature Range Modifier Day Schedule Name
    Wetbulb,                 !- Humidity Condition Type
    -16,                     !- Wetbulb or DewPoint at Maximum Dry-Bulb {C}
    ,                        !- Humidity Condition Day Schedule Name
    ,                        !- Humidity Ratio at Maximum Dry-Bulb {kgWater/kgDryAir}
    ,                        !- Enthalpy at Maximum Dry-Bulb {J/kg}
    ,                        !- Daily Wet-Bulb Temperature Range {deltaC}
    83411.,                  !- Barometric Pressure {Pa}
    2.3,                     !- Wind Speed {m/s}
    180,                     !- Wind Direction {deg}
    No,                      !- Rain Indicator
    No,                      !- Snow Indicator
    No,                      !- Daylight Saving Time Indicator
    ASHRAEClearSky,          !- Solar Model Indicator
    ,                        !- Beam Solar Day Schedule Name
    ,                        !- Diffuse Solar Day Schedule Name
    ,                        !- ASHRAE Clear Sky Optical Depth for Beam Irradiance (taub) {dimensionless}
    ,                        !- ASHRAE Clear Sky Optical Depth for Diffuse Irradiance (taud) {dimensionless}
    0.00;                    !- Sky Clearness

  SizingPeriod:DesignDay,
    Denver Centennial Golden Intl Arpt Ann Clg 1% Condns DB=>MWB,  !- Name
    7,                       !- Month
    21,                      !- Day of Month
    SummerDesignDay,         !- Day Type
    32.6,                    !- Maximum Dry-Bulb Temperature {C}
    15.2,                    !- Daily Dry-Bulb Temperature Range {deltaC}
    ,                        !- Dry-Bulb Temperature Range Modifier Type
    ,                        !- Dry-Bulb Temperature Range Modifier Day Schedule Name
    Wetbulb,                 !- Humidity Condition Type
    15.6,                    !- Wetbulb or DewPoint at Maximum Dry-Bulb {C}
    ,                        !- Humidity Condition Day Schedule Name
    ,                        !- Humidity Ratio at Maximum Dry-Bulb {kgWater/kgDryAir}
    ,                        !- Enthalpy at Maximum Dry-Bulb {J/kg}
    ,                        !- Daily Wet-Bulb Temperature Range {deltaC}
    83411.,                  !- Barometric Pressure {Pa}
    4,                       !- Wind Speed {m/s}
    120,                     !- Wind Direction {deg}
    No,                      !- Rain Indicator
    No,                      !- Snow Indicator
    No,                      !- Daylight Saving Time Indicator
    ASHRAEClearSky,          !- Solar Model Indicator
    ,                        !- Beam Solar Day Schedule Name
    ,                        !- Diffuse Solar Day Schedule Name
    ,                        !- ASHRAE Clear Sky Optical Depth for Beam Irradiance (taub) {dimensionless}
    ,                        !- ASHRAE Clear Sky Optical Depth for Diffuse Irradiance (taud) {dimensionless}
    1.00;                    !- Sky Clearness

!-   ===========  ALL OBJECTS IN CLASS: RUNPERIOD ===========

  RunPeriod,
    Run Period 1,            !- Name
    1,                       !- Begin Month
    1,                       !- Begin Day of Month
    ,                        !- Begin Year
    12,                      !- End Month
    31,                      !- End Day of Month
    ,                        !- End Year
    Tuesday,                 !- Day of Week for Start Day
    Yes,                     !- Use Weather File Holidays and Special Days
    Yes,                     !- Use Weather File Daylight Saving Period
    No,                      !- Apply Weekend Holiday Rule
    Yes,                     !- Use Weather File Rain Indicators
    Yes;                     !- Use Weather File Snow Indicators

!-   ===========  ALL OBJECTS IN CLASS: SITE:GROUNDTEMPERATURE:BUILDINGSURFACE ===========

  Site:GroundTemperature:BuildingSurface,18.89,18.92,19.02,19.12,19.21,19.23,19.07,19.32,19.09,19.21,19.13,18.96;

!-   ===========  ALL OBJECTS IN CLASS: SCHEDULETYPELIMITS ===========

  ScheduleTypeLimits,
    Fraction,                !- Name
    0.0,                     !- Lower Limit Value
    1.0,                     !- Upper Limit Value
    CONTINUOUS;              !- Numeric Type

  ScheduleTypeLimits,
    On/Off,                  !- Name
    0,                       !- Lower Limit Value
    1,                       !- Upper Limit Value
    DISCRETE;                !- Numeric Type

!-   ===========  ALL OBJECTS IN CLASS: SCHEDULE:DAY:HOURLY ===========

  Schedule:Day:Hourly,
    On,                      !- Name
    On/Off,                  !- Schedule Type Limits Name
    1.,                      !- Hour 1
    1.,                      !- Hour 2
    1.,                      !- Hour 3
    1.,                      !- Hour 4
    1.,                      !- Hour 5
    1.,                      !- Hour 6
    1.,                      !- Hour 7
    1.,                      !- Hour 8
    1.,                      !- Hour 9
    1.,                      !- Hour 10
    1.,                      !- Hour 11
    1.,                      !- Hour 12
    1.,                      !- Hour 13
    1.,                      !- Hour 14
    1.,                      !- Hour 15
    1.,                      !- Hour 16
    1.,                      !- Hour 17
    1.,                      !- Hour 18
    1.,                      !- Hour 19
    1.,                      !- Hour 20
    1.,                      !- Hour 21
    1.,                      !- Hour 22
    1.,                      !- Hour 23
    1.;                      !- Hour 24

!-   ===========  ALL OBJECTS IN CLASS: SCHEDULE:WEEK:DAILY ===========

  Schedule:Week:Daily,
    On Weeks,                !- Name
    On,                      !- Sunday Schedule:Day Name
    On,                      !- Monday Schedule:Day Name
    On,                      !- Tuesday Schedule:Day Name
    On,                      !- Wednesday Schedule:Day Name
    On,                      !- Thursday Schedule:Day Name
    On,                      !- Friday Schedule:Day Name
    On,                      !- Saturday Schedule:Day Name
    On,                      !- Holiday Schedule:Day Name
    On,                      !- SummerDesignDay Schedule:Day Name
    On,                      !- WinterDesignDay Schedule:Day Name
    On,                      !- CustomDay1 Schedule:Day Name
    On;                      !- CustomDay2 Schedule:Day Name

!-   ===========  ALL OBJECTS IN CLASS: SCHEDULE:YEAR ===========

  Schedule:Year,
    AlwaysOn,                !- Name
    On/Off,                  !- Schedule Type Limits Name
    On Weeks,                !- Schedule:Week Name 1
    1,                       !- Start Month 1
    1,                       !- Start Day 1
    12,                      !- End Month 1
    31;                      !- End Day 1

!-   ===========  ALL OBJECTS IN CLASS: MATERIAL ===========

  Material,
    C5 - 4 IN HW CONCRETE,   !- Name
    MediumRough,             !- Roughness
    0.1014984,               !- Thickness {m}
    1.729577,                !- Conductivity {W/m-K}
    2242.585,                !- Density {kg/m3}
    836.8000,                !- Specific Heat {J/kg-K}
    0.9000000,               !- Thermal Absorptance
    0.6500000,               !- Solar Absorptance
    0.6500000;               !- Visible Absorptance

  Material,
    HighVariableK,           !- Name
    MediumRough,             !- Roughness
    0.101498,                !- Thickness {m}
    1.7,                     !- Conductivity {W/m-K}
    2242,                    !- Density {kg/m3}
    836,                     !- Specific Heat {J/kg-K}
    0.9,                     !- Thermal Absorptance
    0.65,                    !- Solar Absorptance
    0.65;                    !- Visible Absorptance

!-   ===========  ALL OBJECTS IN CLASS: MATERIAL:NOMASS ===========

  Material:NoMass,
    R13LAYER,                !- Name
    Rough,                   !- Roughness
    2.290965,                !- Thermal Resistance {m2-K/W}
    0.9000000,               !- Thermal Absorptance
    0.7500000,               !- Solar Absorptance
    0.7500000;               !- Visible Absorptance

  Material:NoMass,
    R31LAYER,                !- Name
    Rough,                   !- Roughness
    5.456,                   !- Thermal Resistance {m2-K/W}
    0.9000000,               !- Thermal Absorptance
    0.7500000,               !- Solar Absorptance
    0.7500000;               !- Visible Absorptance

!-   ===========  ALL OBJECTS IN CLASS: MATERIALPROPERTY:VARIABLETHERMALCONDUCTIVITY ===========

  MaterialProperty:VariableThermalConductivity,
    HighVariableK,           !- Name
    -40,                     !- Temperature 1 {C}
    1.7,                     !- Thermal Conductivity 1 {W/m-K}
    24,                      !- Temperature 2 {C}
    1.7,                     !- Thermal Conductivity 2 {W/m-K}
    25,                      !- Temperature 3 {C}
    2.2,                     !- Thermal Conductivity 3 {W/m-K}
    100,                     !- Temperature 4 {C}
    2.2;                     !- Thermal Conductivity 4 {W/m-K}

!-   ===========  ALL OBJECTS IN CLASS: CONSTRUCTION ===========

  Construction,
    R13WALL,                 !- Name
    R13LAYER;                !- Outside Layer

  Construction,
    FLOOR,                   !- Name
    C5 - 4 IN HW CONCRETE;   !- Outside Layer

  Construction,
    ROOF31,                  !- Name
    HighVariableK;           !- Outside Layer

!-   ===========  ALL OBJECTS IN CLASS: GLOBALGEOMETRYRULES ===========

  GlobalGeometryRules,
    UpperLeftCorner,         !- Starting Vertex Position
    CounterClockWise,        !- Vertex Entry Direction
    World;                   !- Coordinate System

!-   ===========  ALL OBJECTS IN CLASS: ZONE ===========

  Zone,
    ZONE ONE,                !- Name
    0,                       !- Direction of Relative North {deg}
    0,                       !- X Origin {m}
    0,                       !- Y Origin {m}
    0,                       !- Z Origin {m}
    1,                       !- Type
    1,                       !- Multiplier
    autocalculate,           !- Ceiling Height {m}
    autocalculate;           !- Volume {m3}

!-   ===========  ALL OBJECTS IN CLASS: BUILDINGSURFACE:DETAILED ===========

  BuildingSurface:Detailed,
    Zn001:Wall001,           !- Name
    Wall,                    !- Surface Type
    R13WALL,                 !- Construction Name
    ZONE ONE,                !- Zone Name
    ,                        !- Space Name
    Outdoors,                !- Outside Boundary Condition
    ,                        !- Outside Boundary Condition Object
    SunExposed,              !- Sun Exposure
    WindExposed,             !- Wind Exposure
    0.5000000,               !- View Factor to Ground
    4,                       !- Number of Vertices
    0,0,4.572000,  !- X,Y,Z ==> Vertex 1 {m}
    0,0,0,  !- X,Y,Z ==> Vertex 2 {m}
    15.24000,0,0,  !- X,Y,Z ==> Vertex 3 {m}
    15.24000,0,4.572000;  !- X,Y,Z ==> Vertex 4 {m}

  BuildingSurface:Detailed,
    Zn001:Wall002,           !- Name
    Wall,                    !- Surface Type
    R13WALL,                 !- Construction Name
    ZONE ONE,                !- Zone Name
    ,                        !- Space Name
    Outdoors,                !- Outside Boundary Condition
    ,                        !- Outside Boundary Condition Object
    SunExposed,              !- Sun Exposure
    WindExposed,             !- Wind Exposure
    0.5000000,               !- View Factor to Ground
    4,                       !- Number of Vertices
    15.24000,0,4.572000,  !- X,Y,Z ==> Vertex 1 {m}
    15.24000,0,0,  !- X,Y,Z ==> Vertex 2 {m}
    15.24000,15.24000,0,  !- X,Y,Z ==> Vertex 3 {m}
    15.24000,15.24000,4.572000;  !- X,Y,Z ==> Vertex 4 {m}

  BuildingSurface:Detailed,
    Zn001:Wall003,           !- Name
    Wall,                    !- Surface Type
    R13WALL,                 !- Construction Name
    ZONE ONE,                !- Zone Name
    ,                        !- Space Name
    Outdoors,                !- Outside Boundary Condition
    ,                        !- Outside Boundary Condition Object
    SunExposed,              !- Sun Exposure
    WindExposed,             !- Wind Exposure
    0.5000000,               !- View Factor to Ground
    4,                       !- Number of Vertices
    15.24000,15.24000,4.572000,  !- X,Y,Z ==> Vertex 1 {m}
    15.24000,15.24000,0,  !- X,Y,Z ==> Vertex 2 {m}
    0,15.24000,0,  !- X,Y,Z ==> Vertex 3 {m}
    0,15.24000,4.572000;  !- X,Y,Z ==> Vertex 4 {m}

  BuildingSurface:Detailed,
    Zn001:Wall004,           !- Name
    Wall,                    !- Surface Type
    R13WALL,                 !- Construction Name
    ZONE ONE,                !- Zone Name
    ,                        !- Space Name
    Outdoors,                !- Outside Boundary Condition
    ,                        !- Outside Boundary Condition Object
    SunExposed,              !- Sun Exposure
    WindExposed,             !- Wind Exposure
    0.5000000,               !- View Factor to Ground
    4,                       !- Number of Vertices
    0,15.24000,4.572000,  !- X,Y,Z ==> Vertex 1 {m}
    0,15.24000,0,  !- X,Y,Z ==> Vertex 2 {m}
    0,0,0,  !- X,Y,Z ==> Vertex 3 {m}
    0,0,4.572000;  !- X,Y,Z ==> Vertex 4 {m}

  BuildingSurface:Detailed,
    Zn001:Flr001,            !- Name
    Floor,                   !- Surface Type
    FLOOR,                   !- Construction Name
    ZONE ONE,                !- Zone Name
    ,                        !- Space Name
    Surface,                 !- Outside Boundary Condition
    Zn001:Flr001,            !- Outside Boundary Condition Object
    NoSun,                   !- Sun Exposure
    NoWind,                  !- Wind Exposure
    1.000000,                !- View Factor to Ground
    4,                       !- Number of Vertices
    15.24000,0.000000,0.0,  !- X,Y,Z ==> Vertex 1 {m}
    0.000000,0.000000,0.0,  !- X,Y,Z ==> Vertex 2 {m}
    0.000000,15.24000,0.0,  !- X,Y,Z ==> Vertex 3 {m}
    15.24000,15.24000,0.0;  !- X,Y,Z ==> Vertex 4 {m}

  BuildingSurface:Detailed,
    Zn001:Roof001,           !- Name
    Roof,                    !- Surface Type
    ROOF31,                  !- Construction Name
    ZONE ONE,                !- Zone Name
    ,                        !- Space Name
    Outdoors,                !- Outside Boundary Condition
    ,                        !- Outside Boundary Condition Object
    SunExposed,              !- Sun Exposure
    WindExposed,             !- Wind Exposure
    0,                       !- View Factor to Ground
    4,                       !- Number of Vertices
    0.000000,15.24000,4.572,  !- X,Y,Z ==> Vertex 1 {m}
    0.000000,0.000000,4.572,  !- X,Y,Z ==> Vertex 2 {m}
    15.24000,0.000000,4.572,  !- X,Y,Z ==> Vertex 3 {m}
    15.24000,15.24000,4.572;  !- X,Y,Z ==> Vertex 4 {m}

!-   ===========  ALL OBJECTS IN CLASS: EXTERIOR:LIGHTS ===========

  Exterior:Lights,
    ExtLights,               !- Name
    AlwaysOn,                !- Schedule Name
    5250,                    !- Design Level {W}
    AstronomicalClock,       !- Control Option
    Grounds Lights;          !- End-Use Subcategory

!-   ===========  ALL OBJECTS IN CLASS: OUTPUT:VARIABLEDICTIONARY ===========

  Output:VariableDictionary,regular,Name;

!-   ===========  ALL OBJECTS IN CLASS: OUTPUT:TABLE:SUMMARYREPORTS ===========

  Output:Table:SummaryReports,
    AllSummary;              !- Report 1 Name

!-   ===========  ALL OBJECTS IN CLASS: OUTPUTCONTROL:TABLE:STYLE ===========

  OutputControl:Table:Style,
    HTML;                    !- Column Separator

!-   ===========  ALL OBJECTS IN CLASS: OUTPUT:VARIABLE ===========

  Output:Variable,*,Site Outdoor Air Drybulb Temperature,hourly;

  Output:Variable,*,Site Daylight Saving Time Status,Hourly;

  Output:Variable,*,Site Day Type Index,Hourly;

  Output:Variable,*,Zone Mean Air Temperature,Hourly;

  Output:Variable,*,Zone Total Internal Latent Gain Energy,hourly;

  Output:Variable,*,Zone Mean Radiant Temperature,hourly;

  Output:Variable,*,Zone Air Heat Balance Surface Convection Rate,hourly;

  Output:Variable,*,Zone Air Heat Balance Air Energy Storage Rate,hourly;

  Output:Variable,*,Surface Inside Face Temperature,Hourly;

  Output:Variable,*,Surface Outside Face Temperature,Hourly;

  Output:Variable,*,Surface Inside Face Convection Heat Transfer Coefficient,Hourly;

  Output:Variable,*,Surface Outside Face Convection Heat Transfer Coefficient,Hourly;

  Output:Variable,*,Surface Inside Face Conduction Heat Transfer Rate per Area,Hourly;

  Output:Variable,*,Surface Outside Face Conduction Heat Transfer Rate per Area,Hourly;

  Output:Variable,*,CondFD Surface Temperature Node 1;

  Output:Variable,*,CondFD Surface Temperature Node 2;

  Output:Variable,*,CondFD Surface Temperature Node 3;

  Output:Variable,*,CondFD Surface Temperature Node 4;

  Output:Variable,*,CondFD Surface Temperature Node 5;

  Output:Diagnostics,
    DisplayAdvancedReportVariables;  !- Key 1

