!-Generator IDFEditor 1.34
!-Option OriginalOrderTop UseSpecialFormat
!-NOTE: All comments with '!-' are ignored by the IDFEditor and are generated automatically.
!-      Use '!' comments if they need to be retained when using the IDFEditor.
! 5ZoneVAV-ChilledWaterStorage-Mixed_DCV_MultiPath.idf
! Basic file description:  1 story building divided into 4 exterior and one interior conditioned zone
!
! Highlights:              Illustrates the use of a Mixed chilled water storage tank to load a chiller at night
!                          The DCV method is the ventilation rate procedure (VRP) defined in ASHRAE Standard 62.1-2007.
!                            The method considers the zone air distribution effectiveness and system ventilation efficiency.
!                          Added zone maximum outdoor air fraction as part of BMS OA zone level control.
!
! Simulation Location/Run: CHICAGO_IL_USA TMY2-94846, 2 design days, 2 run periods,
!                          Run Control executes the run periods using the weather file
!
! Location:                Chicago, IL
!
! Design Days:             CHICAGO_IL_USA Annual Heating 99.6%, MaxDB=-20.6°C
!                          CHICAGO_IL_USA Annual Cooling (DB=>MWB) .4%, MaxDB=33.2°C MWB=23.8°C
!
! Run Period (Weather File): Summer 7/11-7/18, CHICAGO_IL_USA TMY2-94846
!
! Run Control:             Zone and System sizing with weather file run control (no design days run)
!
! Building: Single floor rectangular building. 5 zones - 4 exterior, 1 interior.
!           There are windows on all 4 facades.
!           Model started out from EnergyPlus Example File Generator
!           ASHRAE/IESNA/USGBC/DOE Advanced Energy Design Guide for 30% Savings (Office and Retail only)
!           Building is an office.
!           The south facing glass is shaded by overhangs.
!
!
! Floor Area:        800 m2
! Number of Stories: 1
!
!
! Internal gains description:     lighting is 10.8 W/m2, office equip is 16.07 watts/m2. There are occupants
!                                 for every 25.58 m2 of floor area. The infiltration is about 0.1 air changes per hour.
!
! Interzone Surfaces:             5 interzone surfaces
! Internal Mass:                  Yes, heavy internal furnishings
!
! Windows:                        per 30% AEDG  , overhangs.
! Doors:                          none
!
! Detached Shading:               None
! Daylight:                       8 skylights over core zone.
! Natural Ventilation:            None
! Compact Schedules:              Yes
!
! HVAC:                           Fan powered VAV system with outside air economizer, hot water reheat coils,
!                                 central chilled water cooling coil. Central Plant is single hot water
!                                 boiler, electric compression chiller with water cooled condenser.
!                                 Primary-secondary chilled water loops connected by a chilled water thermal tank
!                                 Primary loop has a chiller and is controlled to 6.7C and charges storage tank.
!                                 Secondary loop uses storage tank to serve the chilled water coil
!                                 Most equipment is autosized
!
! Zonal Equipment:                No
! Central Air Handling Equipment: Yes
! System Equipment Autosize:      Yes
! Purchased Cooling:              None
! Purchased Heating:              None
! Coils:                          Yes
! Pumps:                          Yes
! Boilers:                        Yes
! Chillers:                       Yes
!
! Results:
! Standard Reports:
! Timestep or Hourly Variables:   Hourly
! Time bins Report:               None
! HTML Report:                    yes, all summary and other monthly tables
! Environmental Emissions:        None
! Utility Tariffs:                Yes, PSI Indiana year 2004.

  Version,24.1;

  Timestep,4;

  SimulationControl,
    Yes,                     !- Do Zone Sizing Calculation
    Yes,                     !- Do System Sizing Calculation
    Yes,                     !- Do Plant Sizing Calculation
    No,                      !- Run Simulation for Sizing Periods
    Yes,                     !- Run Simulation for Weather File Run Periods
    No,                      !- Do HVAC Sizing Simulation for Sizing Periods
    1;                       !- Maximum Number of HVAC Sizing Simulation Passes

  RunPeriod,
    Run Period 1,            !- Name
    1,                       !- Begin Month
    1,                       !- Begin Day of Month
    ,                        !- Begin Year
    12,                      !- End Month
    31,                      !- End Day of Month
    ,                        !- End Year
    Sunday,                  !- Day of Week for Start Day
    No,                      !- Use Weather File Holidays and Special Days
    No,                      !- Use Weather File Daylight Saving Period
    No,                      !- Apply Weekend Holiday Rule
    Yes,                     !- Use Weather File Rain Indicators
    Yes;                     !- Use Weather File Snow Indicators

  SurfaceConvectionAlgorithm:Inside,TARP;

  SurfaceConvectionAlgorithm:Outside,DOE-2;

  HeatBalanceAlgorithm,ConductionTransferFunction;

  Sizing:Parameters,
    1.2000,                  !- Heating Sizing Factor
    1.2000,                  !- Cooling Sizing Factor
    ;                        !- Timesteps in Averaging Window

  ConvergenceLimits,
    5,                       !- Minimum System Timestep {minutes}
    25,                      !- Maximum HVAC Iterations
    5,                       !- Minimum Plant Iterations
    10;                      !- Maximum Plant Iterations

  ShadowCalculation,
    PolygonClipping,         !- Shading Calculation Method
    Periodic,                !- Shading Calculation Update Frequency Method
    30;                      !- Shading Calculation Update Frequency

  GlobalGeometryRules,
    UpperLeftCorner,         !- Starting Vertex Position
    CounterClockWise,        !- Vertex Entry Direction
    Relative;                !- Coordinate System

  Building,
    5-zoneVAV,               !- Name
    0.0000,                  !- North Axis {deg}
    City,                    !- Terrain
    0.0400,                  !- Loads Convergence Tolerance Value {W}
    0.2000,                  !- Temperature Convergence Tolerance Value {deltaC}
    FullInteriorAndExterior, !- Solar Distribution
    25,                      !- Maximum Number of Warmup Days
    6;                       !- Minimum Number of Warmup Days

! US National Holidays

  RunPeriodControl:SpecialDays,
    New Years Day,           !- Name
    January 1,               !- Start Date
    1,                       !- Duration {days}
    Holiday;                 !- Special Day Type

  RunPeriodControl:SpecialDays,
    Veterans Day,            !- Name
    November 11,             !- Start Date
    1,                       !- Duration {days}
    Holiday;                 !- Special Day Type

  RunPeriodControl:SpecialDays,
    Christmas,               !- Name
    December 25,             !- Start Date
    1,                       !- Duration {days}
    Holiday;                 !- Special Day Type

  RunPeriodControl:SpecialDays,
    Independence Day,        !- Name
    July 4,                  !- Start Date
    1,                       !- Duration {days}
    Holiday;                 !- Special Day Type

  RunPeriodControl:SpecialDays,
    MLK Day,                 !- Name
    3rd Monday in January,   !- Start Date
    1,                       !- Duration {days}
    Holiday;                 !- Special Day Type

  RunPeriodControl:SpecialDays,
    Presidents Day,          !- Name
    3rd Monday in February,  !- Start Date
    1,                       !- Duration {days}
    Holiday;                 !- Special Day Type

  RunPeriodControl:SpecialDays,
    Memorial Day,            !- Name
    Last Monday in May,      !- Start Date
    1,                       !- Duration {days}
    Holiday;                 !- Special Day Type

  RunPeriodControl:SpecialDays,
    Labor Day,               !- Name
    1st Monday in September, !- Start Date
    1,                       !- Duration {days}
    Holiday;                 !- Special Day Type

  RunPeriodControl:SpecialDays,
    Columbus Day,            !- Name
    2nd Monday in October,   !- Start Date
    1,                       !- Duration {days}
    Holiday;                 !- Special Day Type

  RunPeriodControl:SpecialDays,
    Thanksgiving,            !- Name
    4th Thursday in November,!- Start Date
    1,                       !- Duration {days}
    Holiday;                 !- Special Day Type

  Site:Location,
    CHICAGO_IL_USA TMY2-94846,  !- Name
    41.78000,                !- Latitude {deg}
    -87.75000,               !- Longitude {deg}
    -6.000000,               !- Time Zone {hr}
    190.0000;                !- Elevation {m}

  Site:GroundTemperature:BuildingSurface,19.96,19.94,19.99,20.04,20.09,20.17,20.21,20.24,20.23,20.20,20.17,20.12;

! Daily Avg, -4.6, -2.2, 1.6, 8.4, 15.3, 21.1, 23.5, 21.8, 18.1, 11.7, 4.2, -2.6

  Site:WaterMainsTemperature,
    CORRELATION,             !- Calculation Method
    ,                        !- Temperature Schedule Name
    9.69,                    !- Annual Average Outdoor Air Temperature {C}
    28.10;                   !- Maximum Difference In Monthly Average Outdoor Air Temperatures {deltaC}

! CHICAGO_IL_USA Annual Heating 99.6%, MaxDB=-20.6°C

  SizingPeriod:DesignDay,
    CHICAGO Ann Htg 99.6% Condns DB,  !- Name
    1,                       !- Month
    21,                      !- Day of Month
    WinterDesignDay,         !- Day Type
    -20.6,                   !- Maximum Dry-Bulb Temperature {C}
    0.0,                     !- Daily Dry-Bulb Temperature Range {deltaC}
    ,                        !- Dry-Bulb Temperature Range Modifier Type
    ,                        !- Dry-Bulb Temperature Range Modifier Day Schedule Name
    Wetbulb,                 !- Humidity Condition Type
    -20.6,                   !- Wetbulb or DewPoint at Maximum Dry-Bulb {C}
    ,                        !- Humidity Condition Day Schedule Name
    ,                        !- Humidity Ratio at Maximum Dry-Bulb {kgWater/kgDryAir}
    ,                        !- Enthalpy at Maximum Dry-Bulb {J/kg}
    ,                        !- Daily Wet-Bulb Temperature Range {deltaC}
    99063.,                  !- Barometric Pressure {Pa}
    4.9,                     !- Wind Speed {m/s}
    270,                     !- Wind Direction {deg}
    No,                      !- Rain Indicator
    No,                      !- Snow Indicator
    No,                      !- Daylight Saving Time Indicator
    ASHRAEClearSky,          !- Solar Model Indicator
    ,                        !- Beam Solar Day Schedule Name
    ,                        !- Diffuse Solar Day Schedule Name
    ,                        !- ASHRAE Clear Sky Optical Depth for Beam Irradiance (taub) {dimensionless}
    ,                        !- ASHRAE Clear Sky Optical Depth for Diffuse Irradiance (taud) {dimensionless}
    0.00;                    !- Sky Clearness

! CHICAGO_IL_USA Annual Cooling (DB=>MWB) .4%, MaxDB=33.2°C MWB=23.8°C

  SizingPeriod:DesignDay,
    CHICAGO Ann Clg .4% Condns DB=>MWB,  !- Name
    7,                       !- Month
    21,                      !- Day of Month
    SummerDesignDay,         !- Day Type
    33.2,                    !- Maximum Dry-Bulb Temperature {C}
    10.7,                    !- Daily Dry-Bulb Temperature Range {deltaC}
    ,                        !- Dry-Bulb Temperature Range Modifier Type
    ,                        !- Dry-Bulb Temperature Range Modifier Day Schedule Name
    Wetbulb,                 !- Humidity Condition Type
    23.8,                    !- Wetbulb or DewPoint at Maximum Dry-Bulb {C}
    ,                        !- Humidity Condition Day Schedule Name
    ,                        !- Humidity Ratio at Maximum Dry-Bulb {kgWater/kgDryAir}
    ,                        !- Enthalpy at Maximum Dry-Bulb {J/kg}
    ,                        !- Daily Wet-Bulb Temperature Range {deltaC}
    99063.,                  !- Barometric Pressure {Pa}
    5.3,                     !- Wind Speed {m/s}
    230,                     !- Wind Direction {deg}
    No,                      !- Rain Indicator
    No,                      !- Snow Indicator
    No,                      !- Daylight Saving Time Indicator
    ASHRAEClearSky,          !- Solar Model Indicator
    ,                        !- Beam Solar Day Schedule Name
    ,                        !- Diffuse Solar Day Schedule Name
    ,                        !- ASHRAE Clear Sky Optical Depth for Beam Irradiance (taub) {dimensionless}
    ,                        !- ASHRAE Clear Sky Optical Depth for Diffuse Irradiance (taud) {dimensionless}
    1.00;                    !- Sky Clearness

  ScheduleTypeLimits,
    Any Number;              !- Name

  ScheduleTypeLimits,
    Fraction,                !- Name
    0.0,                     !- Lower Limit Value
    1.0,                     !- Upper Limit Value
    CONTINUOUS;              !- Numeric Type

  ScheduleTypeLimits,
    Temperature,             !- Name
    -60,                     !- Lower Limit Value
    200,                     !- Upper Limit Value
    CONTINUOUS,              !- Numeric Type
    Temperature;             !- Unit Type

  ScheduleTypeLimits,
    On/Off,                  !- Name
    0,                       !- Lower Limit Value
    1,                       !- Upper Limit Value
    DISCRETE;                !- Numeric Type

  ScheduleTypeLimits,
    Control Type,            !- Name
    0,                       !- Lower Limit Value
    4,                       !- Upper Limit Value
    DISCRETE;                !- Numeric Type

  ScheduleTypeLimits,
    Humidity,                !- Name
    10,                      !- Lower Limit Value
    90,                      !- Upper Limit Value
    CONTINUOUS;              !- Numeric Type

  ScheduleTypeLimits,
    Number;                  !- Name

  Schedule:Compact,
    TES Charge Schedule,     !- Name
    on/off,                  !- Schedule Type Limits Name
    Through: 12/31,          !- Field 1
    For: Weekdays SummerDesignDay, !- Field 2
    Until: 10:00,1.0,        !- Field 3
    Until: 17:00,0.0,        !- Field 5
    Until: 24:00,1.0,        !- Field 7
    For: Saturday WinterDesignDay, !- Field 9
    Until: 12:00,1.0,        !- Field 10
    Until: 18:00,0.0,        !- Field 12
    Until: 24:00,1.0,        !- Field 14
    For: Sunday Holidays AllOtherDays, !- Field 16
    Until: 24:00,1.0;        !- Field 17

  Schedule:Compact,
    ALWAYS_ON,               !- Name
    Fraction,                !- Schedule Type Limits Name
    Through: 12/31,          !- Field 1
    For: AllDays,            !- Field 2
    Until: 24:00,1.0;        !- Field 3

! Schedule Office HVAC Systems, ASHRAE 90.1-1989, Section 13
!  Equivalent Full-Load Hours: Weekdays 16, Saturday 12, Sunday/Holidays 0

  Schedule:Compact,
    HVACOperationSchd,       !- Name
    on/off,                  !- Schedule Type Limits Name
    Through: 12/31,          !- Field 1
    For: Weekdays SummerDesignDay, !- Field 2
    Until: 06:00,0.0,        !- Field 3
    Until: 22:00,1.0,        !- Field 5
    Until: 24:00,0.0,        !- Field 7
    For: Saturday WinterDesignDay, !- Field 9
    Until: 06:00,0.0,        !- Field 10
    Until: 18:00,1.0,        !- Field 12
    Until: 24:00,0.0,        !- Field 14
    For: Sunday Holidays AllOtherDays, !- Field 16
    Until: 24:00,0.0;        !- Field 17

! Schedule Office Lighting,  ASHRAE 90.1-1989, Section 13 w/addenda

  Schedule:Compact,
    BLDG_LIGHT_SCH,          !- Name
    Fraction,                !- Schedule Type Limits Name
    Through: 12/31,          !- Field 1
    For: Weekdays,           !- Field 2
    Until: 05:00,0.05,       !- Field 3
    Until: 07:00,0.1,        !- Field 5
    Until: 08:00,0.3,        !- Field 7
    Until: 17:00,0.9,        !- Field 9
    Until: 18:00,0.5,        !- Field 11
    Until: 20:00,0.3,        !- Field 13
    Until: 22:00,0.2,        !- Field 15
    Until: 23:00,0.1,        !- Field 17
    Until: 24:00,0.05,       !- Field 19
    For: SummerDesignDay,    !- Field 21
    Until: 24:00,1.0,        !- Field 22
    For: Saturday,           !- Field 24
    Until: 06:00,0.05,       !- Field 25
    Until: 08:00,0.1,        !- Field 27
    Until: 12:00,0.3,        !- Field 29
    Until: 17:00,0.15,       !- Field 31
    Until: 24:00,0.05,       !- Field 33
    For: WinterDesignDay,    !- Field 35
    Until: 24:00,0.0,        !- Field 36
    For: Sunday Holidays AllOtherDays, !- Field 38
    Until: 24:00,0.05;       !- Field 39

! Schedule Office Receptacle,  ASHRAE 90.1-1989, Section 13
! MODIFIED for increased off-hours plug loads (to account for more IT equipment)
! Hours: Weekly: 86.15, Yearly: 4492

  Schedule:Compact,
    BLDG_EQUIP_SCH,          !- Name
    Fraction,                !- Schedule Type Limits Name
    Through: 12/31,          !- Field 1
    For: Weekdays,           !- Field 2
    Until: 08:00,0.40,       !- Field 3
    Until: 12:00,0.90,       !- Field 5
    Until: 13:00,0.80,       !- Field 7
    Until: 17:00,0.90,       !- Field 9
    Until: 18:00,0.50,       !- Field 11
    Until: 24:00,0.40,       !- Field 13
    For: SummerDesignDay,    !- Field 15
    Until: 24:00,1.0,        !- Field 16
    For: Saturday,           !- Field 18
    Until: 06:00,0.30,       !- Field 19
    Until: 08:00,0.4,        !- Field 21
    Until: 12:00,0.5,        !- Field 23
    Until: 17:00,0.35,       !- Field 25
    Until: 24:00,0.30,       !- Field 27
    For: WinterDesignDay,    !- Field 29
    Until: 24:00,0.0,        !- Field 30
    For: Sunday Holidays AllOtherDays, !- Field 32
    Until: 24:00,0.30;       !- Field 33

! Schedule Office Occupancy,

  Schedule:Compact,
    BLDG_OCC_SCH,            !- Name
    Fraction,                !- Schedule Type Limits Name
    Through: 12/31,          !- Field 1
    For: Weekdays,           !- Field 2
    Until: 06:00,0.0,        !- Field 3
    Until: 07:00,0.1,        !- Field 5
    Until: 08:00,0.2,        !- Field 7
    Until: 12:00,0.95,       !- Field 9
    Until: 13:00,0.5,        !- Field 11
    Until: 17:00,0.95,       !- Field 13
    Until: 18:00,0.3,        !- Field 15
    Until: 22:00,0.1,        !- Field 17
    Until: 24:00,0.05,       !- Field 19
    For: SummerDesignDay,    !- Field 21
    Until: 06:00,0.0,        !- Field 22
    Until: 22:00,1.0,        !- Field 24
    Until: 24:00,0.05,       !- Field 26
    For: Saturday,           !- Field 28
    Until: 06:00,0.0,        !- Field 29
    Until: 08:00,0.1,        !- Field 31
    Until: 12:00,0.3,        !- Field 33
    Until: 17:00,0.1,        !- Field 35
    Until: 19:00,0.05,       !- Field 37
    Until: 24:00,0.0,        !- Field 39
    For: WinterDesignDay,    !- Field 41
    Until: 24:00,0.0,        !- Field 42
    For: Sunday Holidays AllOtherDays, !- Field 44
    Until: 06:00,0.0,        !- Field 45
    Until: 18:00,0.05,       !- Field 47
    Until: 24:00,0.0;        !- Field 49

! Schedule Office Service Water Heating, ASHRAE 90.1-1989, Section 13

  Schedule:Compact,
    BLDG_SWH_SCH,            !- Name
    Fraction,                !- Schedule Type Limits Name
    Through: 12/31,          !- Field 1
    For: Weekdays SummerDesignDay, !- Field 2
    Until: 05:00,0.05,       !- Field 3
    Until: 06:00,0.08,       !- Field 5
    Until: 07:00,0.07,       !- Field 7
    Until: 08:00,0.19,       !- Field 9
    Until: 09:00,0.35,       !- Field 11
    Until: 10:00,0.38,       !- Field 13
    Until: 11:00,0.39,       !- Field 15
    Until: 12:00,0.47,       !- Field 17
    Until: 13:00,0.57,       !- Field 19
    Until: 14:00,0.54,       !- Field 21
    Until: 15:00,0.34,       !- Field 23
    Until: 16:00,0.33,       !- Field 25
    Until: 17:00,0.44,       !- Field 27
    Until: 18:00,0.26,       !- Field 29
    Until: 19:00,0.21,       !- Field 31
    Until: 20:00,0.15,       !- Field 33
    Until: 21:00,0.17,       !- Field 35
    Until: 22:00,0.08,       !- Field 37
    Until: 24:00,0.05,       !- Field 39
    For: Saturday WinterDesignDay, !- Field 41
    Until: 05:00,0.05,       !- Field 42
    Until: 06:00,0.08,       !- Field 44
    Until: 07:00,0.07,       !- Field 46
    Until: 08:00,0.11,       !- Field 48
    Until: 09:00,0.15,       !- Field 50
    Until: 10:00,0.21,       !- Field 52
    Until: 11:00,0.19,       !- Field 54
    Until: 12:00,0.23,       !- Field 56
    Until: 13:00,0.20,       !- Field 58
    Until: 14:00,0.19,       !- Field 60
    Until: 15:00,0.15,       !- Field 62
    Until: 16:00,0.13,       !- Field 64
    Until: 17:00,0.14,       !- Field 66
    Until: 21:00,0.07,       !- Field 68
    Until: 22:00,0.09,       !- Field 70
    Until: 24:00,0.05,       !- Field 72
    For: Sunday Holidays AllOtherDays, !- Field 74
    Until: 05:00,0.04,       !- Field 75
    Until: 06:00,0.07,       !- Field 77
    Until: 11:00,0.04,       !- Field 79
    Until: 13:00,0.06,       !- Field 81
    Until: 14:00,0.09,       !- Field 83
    Until: 15:00,0.06,       !- Field 85
    Until: 21:00,0.04,       !- Field 87
    Until: 22:00,0.07,       !- Field 89
    Until: 24:00,0.04;       !- Field 91

  Schedule:Compact,
    ACTIVITY_SCH,            !- Name
    Any Number,              !- Schedule Type Limits Name
    Through: 12/31,          !- Field 1
    For: AllDays,            !- Field 2
    Until: 24:00,120.;       !- Field 3

  Schedule:Compact,
    WORK_EFF_SCH,            !- Name
    Fraction,                !- Schedule Type Limits Name
    Through: 12/31,          !- Field 1
    For: AllDays,            !- Field 2
    Until: 24:00,0.0;        !- Field 3

  Schedule:Compact,
    AIR_VELO_SCH,            !- Name
    Any Number,              !- Schedule Type Limits Name
    Through: 12/31,          !- Field 1
    For: AllDays,            !- Field 2
    Until: 24:00,0.2;        !- Field 3

  Schedule:Compact,
    CLOTHING_SCH,            !- Name
    Any Number,              !- Schedule Type Limits Name
    Through: 04/30,          !- Field 1
    For: AllDays,            !- Field 2
    Until: 24:00,1.0,        !- Field 3
    Through: 09/30,          !- Field 5
    For: AllDays,            !- Field 6
    Until: 24:00,0.5,        !- Field 7
    Through: 12/31,          !- Field 9
    For: AllDays,            !- Field 10
    Until: 24:00,1.0;        !- Field 11

  Schedule:Compact,
    INFIL_SCH,               !- Name
    fraction,                !- Schedule Type Limits Name
    Through: 12/31,          !- Field 1
    For: Weekdays SummerDesignDay, !- Field 2
    Until: 06:00,1.0,        !- Field 3
    Until: 22:00,0.0,        !- Field 5
    Until: 24:00,1.0,        !- Field 7
    For: Saturday WinterDesignDay, !- Field 9
    Until: 06:00,1.0,        !- Field 10
    Until: 18:00,0.0,        !- Field 12
    Until: 24:00,1.0,        !- Field 14
    For: Sunday Holidays AllOtherDays, !- Field 16
    Until: 24:00,1.0;        !- Field 17

  Schedule:Compact,
    PlantOnSched,            !- Name
    On/Off,                  !- Schedule Type Limits Name
    Through: 12/31,          !- Field 1
    For: AllDays,            !- Field 2
    Until: 24:00,1.0;        !- Field 3

  Schedule:Compact,
    HTGSETP_SCH,             !- Name
    Temperature,             !- Schedule Type Limits Name
    Through: 12/31,          !- Field 1
    For: Weekdays WinterDesignDay, !- Field 2
    Until: 06:00,13.,        !- Field 3
    Until: 22:00,21.0,       !- Field 5
    Until: 24:00,13.,        !- Field 7
    For SummerDesignDay,     !- Field 9
    Until: 24:00,13.,        !- Field 10
    For: Saturday,           !- Field 12
    Until: 06:00,13.,        !- Field 13
    Until: 18:00,21.0,       !- Field 15
    Until: 24:00,13.,        !- Field 17
    For: Sunday Holidays AllOtherDays, !- Field 19
    Until: 24:00,13.;        !- Field 20

  Schedule:Compact,
    CLGSETP_SCH,             !- Name
    Temperature,             !- Schedule Type Limits Name
    Through: 12/31,          !- Field 1
    For: Weekdays SummerDesignDay, !- Field 2
    Until: 06:00,33.0,       !- Field 3
    Until: 22:00,24.0,       !- Field 5
    Until: 24:00,33.0,       !- Field 7
    For: Saturday,           !- Field 9
    Until: 06:00,33.0,       !- Field 10
    Until: 18:00,24.0,       !- Field 12
    Until: 24:00,33.0,       !- Field 14
    For WinterDesignDay,     !- Field 16
    Until: 24:00,33.0,       !- Field 17
    For: Sunday Holidays AllOtherDays, !- Field 19
    Until: 24:00,33.0;       !- Field 20

  Schedule:Compact,
    Dual Zone Control Type Sched,  !- Name
    Control Type,            !- Schedule Type Limits Name
    Through: 12/31,          !- Field 1
    For: AllDays,            !- Field 2
    Until: 24:00,4;          !- Field 3

  Schedule:Compact,
    CW-Tank-Temp-Schedule,   !- Name
    Temperature,             !- Schedule Type Limits Name
    Through: 12/31,          !- Field 1
    For: AllDays,            !- Field 2
    Until: 24:00,7.5;        !- Field 3

  Schedule:Compact,
    CW-Primary-Loop-Temp-Schedule,  !- Name
    Temperature,             !- Schedule Type Limits Name
    Through: 12/31,          !- Field 1
    For: AllDays,            !- Field 2
    Until: 24:00,6.7;        !- Field 3

  Schedule:Compact,
    CW-Secondary-Loop-Temp-Schedule,  !- Name
    Temperature,             !- Schedule Type Limits Name
    Through: 12/31,          !- Field 1
    For: AllDays,            !- Field 2
    Until: 24:00,8.5;        !- Field 3

  Schedule:Compact,
    HW-Loop-Temp-Schedule,   !- Name
    Temperature,             !- Schedule Type Limits Name
    Through: 12/31,          !- Field 1
    For: AllDays,            !- Field 2
    Until: 24:00,60.;        !- Field 3

  WindowMaterial:Glazing,
    Theoretical Glass [183], !- Name
    SpectralAverage,         !- Optical Data Type
    ,                        !- Window Glass Spectral Data Set Name
    0.0030,                  !- Thickness {m}
    0.6227,                  !- Solar Transmittance at Normal Incidence
    0.3273,                  !- Front Side Solar Reflectance at Normal Incidence
    0.3273,                  !- Back Side Solar Reflectance at Normal Incidence
    0.6720,                  !- Visible Transmittance at Normal Incidence
    0.2780,                  !- Front Side Visible Reflectance at Normal Incidence
    0.2780,                  !- Back Side Visible Reflectance at Normal Incidence
    0.0000,                  !- Infrared Transmittance at Normal Incidence
    0.9400,                  !- Front Side Infrared Hemispherical Emissivity
    0.9400,                  !- Back Side Infrared Hemispherical Emissivity
    0.0452;                  !- Conductivity {W/m-K}

  WindowMaterial:Gas,
    AIR 6MM_1,               !- Name
    Air,                     !- Gas Type
    0.0063;                  !- Thickness {m}

  WindowMaterial:Glazing,
    Theoretical Glass [28],  !- Name
    SpectralAverage,         !- Optical Data Type
    ,                        !- Window Glass Spectral Data Set Name
    0.0030,                  !- Thickness {m}
    0.3830,                  !- Solar Transmittance at Normal Incidence
    0.5670,                  !- Front Side Solar Reflectance at Normal Incidence
    0.5670,                  !- Back Side Solar Reflectance at Normal Incidence
    0.4110,                  !- Visible Transmittance at Normal Incidence
    0.5390,                  !- Front Side Visible Reflectance at Normal Incidence
    0.5390,                  !- Back Side Visible Reflectance at Normal Incidence
    0.0000,                  !- Infrared Transmittance at Normal Incidence
    0.9200,                  !- Front Side Infrared Hemispherical Emissivity
    0.9200,                  !- Back Side Infrared Hemispherical Emissivity
    0.0298;                  !- Conductivity {W/m-K}

  Material,
    Roof Membrane,           !- Name
    VeryRough,               !- Roughness
    0.0095,                  !- Thickness {m}
    0.1600,                  !- Conductivity {W/m-K}
    1121.2900,               !- Density {kg/m3}
    1460.0000,               !- Specific Heat {J/kg-K}
    0.9000,                  !- Thermal Absorptance
    0.7000,                  !- Solar Absorptance
    0.7000;                  !- Visible Absorptance

  Material,
    Roof Insulation [7],     !- Name
    MediumRough,             !- Roughness
    0.1668,                  !- Thickness {m}
    0.0490,                  !- Conductivity {W/m-K}
    265.0000,                !- Density {kg/m3}
    836.8000,                !- Specific Heat {J/kg-K}
    0.9000,                  !- Thermal Absorptance
    0.7000,                  !- Solar Absorptance
    0.7000;                  !- Visible Absorptance

  Material,
    Metal Decking,           !- Name
    MediumSmooth,            !- Roughness
    0.0015,                  !- Thickness {m}
    45.0060,                 !- Conductivity {W/m-K}
    7680.0000,               !- Density {kg/m3}
    418.4000,                !- Specific Heat {J/kg-K}
    0.9000,                  !- Thermal Absorptance
    0.7000,                  !- Solar Absorptance
    0.3000;                  !- Visible Absorptance

  Material,
    GP01 1/2 GYPSUM,         !- Name
    Smooth,                  !- Roughness
    0.0127,                  !- Thickness {m}
    0.1600,                  !- Conductivity {W/m-K}
    800.0000,                !- Density {kg/m3}
    1090.0000,               !- Specific Heat {J/kg-K}
    0.9000,                  !- Thermal Absorptance
    0.7000,                  !- Solar Absorptance
    0.5000;                  !- Visible Absorptance

  Material:NoMass,
    MAT-SHEATH,              !- Name
    Rough,                   !- Roughness
    0.3626,                  !- Thermal Resistance {m2-K/W}