!-Generator IDFEditor 1.34
!-Option OriginalOrderTop UseSpecialFormat
!-NOTE: All comments with '!-' are ignored by the IDFEditor and are generated automatically.
!-      Use '!' comments if they need to be retained when using the IDFEditor.
! 5ZoneCostEst.idf
! Basic file description: This simple 1 story building illustrates the
! use of cost estimate objects.
! There are 10 zones: and 4 exterior and 1 interior inhabited zones and 5 seperate unconditioned,
!           interstitial zones within suspended ceilings.
! Building: single floor,  rectangular building with 1,860 m2 (20,000 sf).  5 zones -
!           4 exterior, 1 interior, floor to floor height 3.8 m. Exterior zone
!           depth is 4.75 m. There is a 0.9 m. high plenum
!           There are windows on all 4 facades with a 30% window to wall ratio
!           Walls are precast concrete panels over R21 foam, R21 batt in metal stud frame, and 5/8 inch gypsum board.
!           The roof is  built up roof with R-40 foam board over metal deck
!           The floor slab is heavy concrete with carpet covering. The windows are quadruple layer
!        !
!           The building is described in relative coordinates and oriented 5 degrees east of north.
!
! Internal: lighting is 10.5 watts/m2, office equip is 30. watts/m2. There
!           are 9 occupants per 100 m2 of floor area. The infiltration is
!           0.1 air changes per hour. Schedules are developed from ASHRAE 90.1-1989
! HVAC:     Standard VAV system with outside air economizer, hot water reheat
!           coils, central chilled water cooling coil. Central Plant is single
!           hot water boiler, electric compression chiller with water cooled
!           condenser, and cooling tower. All equipment is autosized and originally from
!           HVAC macro templates.
!
! Costs:    The test file illustrates construction cost estimating features.
!           Surfaces are costed using a per-m2 models
!           The autosized electric chiller is costed using a per-kW model based
!           on total cooling capacity.  Low infiltration is modeled using a fixed,
!           general line item cost of $8,500
!           Slightly higher designer and commisioning fees are used in the current model
!           than for the reference case.
!           Tabular report style is HTML.
!
! WeatherFilename=USA_IL_Chicago-OHare_TMY2.epw

  Version,24.1;

  Timestep,4;

  SimulationControl,
    Yes,                     !- Do Zone Sizing Calculation
    Yes,                     !- Do System Sizing Calculation
    YES,                     !- Do Plant Sizing Calculation
    Yes,                     !- Run Simulation for Sizing Periods
    No,                      !- Run Simulation for Weather File Run Periods
    No,                      !- Do HVAC Sizing Simulation for Sizing Periods
    1;                       !- Maximum Number of HVAC Sizing Simulation Passes

  RunPeriod,
    Run Period 1,            !- Name
    1,                       !- Begin Month
    1,                       !- Begin Day of Month
    ,                        !- Begin Year
    12,                      !- End Month
    31,                      !- End Day of Month
    ,                        !- End Year
    Sunday,                  !- Day of Week for Start Day
    No,                      !- Use Weather File Holidays and Special Days
    No,                      !- Use Weather File Daylight Saving Period
    No,                      !- Apply Weekend Holiday Rule
    Yes,                     !- Use Weather File Rain Indicators
    Yes;                     !- Use Weather File Snow Indicators

  SurfaceConvectionAlgorithm:Inside,TARP;

  SurfaceConvectionAlgorithm:Outside,DOE-2;

  HeatBalanceAlgorithm,ConductionTransferFunction;

  Sizing:Parameters,
    1.2,                     !- Heating Sizing Factor
    1.2,                     !- Cooling Sizing Factor
    ;                        !- Timesteps in Averaging Window

  GlobalGeometryRules,
    UpperLeftCorner,         !- Starting Vertex Position
    CounterClockWise,        !- Vertex Entry Direction
    Relative;                !- Coordinate System

  Building,
    AutoBuilt model,         !- Name
    -5.0,                    !- North Axis {deg}
    City,                    !- Terrain
    0.04,                    !- Loads Convergence Tolerance Value {W}
    0.2,                     !- Temperature Convergence Tolerance Value {deltaC}
    FullInteriorAndExterior, !- Solar Distribution
    25,                      !- Maximum Number of Warmup Days
    6;                       !- Minimum Number of Warmup Days

  Site:Location,
    CHICAGO_IL_USA TMY2-94846,  !- Name
    41.78000,                !- Latitude {deg}
    -87.75000,               !- Longitude {deg}
    -6.000000,               !- Time Zone {hr}
    190.0000;                !- Elevation {m}

! CHICAGO_IL_USA Annual Heating Design Conditions Wind Speed=4.9m/s Wind Dir=270
! Coldest Month=January
! CHICAGO_IL_USA Annual Heating 99.6%, MaxDB=-20.6°C

  SizingPeriod:DesignDay,
    CHICAGO Ann Htg 99.6% Condns DB,  !- Name
    1,                       !- Month
    21,                      !- Day of Month
    WinterDesignDay,         !- Day Type
    -20.6,                   !- Maximum Dry-Bulb Temperature {C}
    0.0,                     !- Daily Dry-Bulb Temperature Range {deltaC}
    ,                        !- Dry-Bulb Temperature Range Modifier Type
    ,                        !- Dry-Bulb Temperature Range Modifier Day Schedule Name
    Wetbulb,                 !- Humidity Condition Type
    -20.6,                   !- Wetbulb or DewPoint at Maximum Dry-Bulb {C}
    ,                        !- Humidity Condition Day Schedule Name
    ,                        !- Humidity Ratio at Maximum Dry-Bulb {kgWater/kgDryAir}
    ,                        !- Enthalpy at Maximum Dry-Bulb {J/kg}
    ,                        !- Daily Wet-Bulb Temperature Range {deltaC}
    99063.,                  !- Barometric Pressure {Pa}
    4.9,                     !- Wind Speed {m/s}
    270,                     !- Wind Direction {deg}
    No,                      !- Rain Indicator
    No,                      !- Snow Indicator
    No,                      !- Daylight Saving Time Indicator
    ASHRAEClearSky,          !- Solar Model Indicator
    ,                        !- Beam Solar Day Schedule Name
    ,                        !- Diffuse Solar Day Schedule Name
    ,                        !- ASHRAE Clear Sky Optical Depth for Beam Irradiance (taub) {dimensionless}
    ,                        !- ASHRAE Clear Sky Optical Depth for Diffuse Irradiance (taud) {dimensionless}
    0.00;                    !- Sky Clearness

! CHICAGO Annual Cooling Design Conditions Wind Speed=5.3m/s Wind Dir=230
! Hottest Month=July
! CHICAGO_IL_USA Annual Cooling (DB=>MWB) .4%, MaxDB=33.2°C MWB=23.8°C

  SizingPeriod:DesignDay,
    CHICAGO Ann Clg .4% Condns DB=>MWB,  !- Name
    7,                       !- Month
    21,                      !- Day of Month
    SummerDesignDay,         !- Day Type
    33.2,                    !- Maximum Dry-Bulb Temperature {C}
    10.7,                    !- Daily Dry-Bulb Temperature Range {deltaC}
    ,                        !- Dry-Bulb Temperature Range Modifier Type
    ,                        !- Dry-Bulb Temperature Range Modifier Day Schedule Name
    Wetbulb,                 !- Humidity Condition Type
    23.8,                    !- Wetbulb or DewPoint at Maximum Dry-Bulb {C}
    ,                        !- Humidity Condition Day Schedule Name
    ,                        !- Humidity Ratio at Maximum Dry-Bulb {kgWater/kgDryAir}
    ,                        !- Enthalpy at Maximum Dry-Bulb {J/kg}
    ,                        !- Daily Wet-Bulb Temperature Range {deltaC}
    99063.,                  !- Barometric Pressure {Pa}
    5.3,                     !- Wind Speed {m/s}
    230,                     !- Wind Direction {deg}
    No,                      !- Rain Indicator
    No,                      !- Snow Indicator
    No,                      !- Daylight Saving Time Indicator
    ASHRAEClearSky,          !- Solar Model Indicator
    ,                        !- Beam Solar Day Schedule Name
    ,                        !- Diffuse Solar Day Schedule Name
    ,                        !- ASHRAE Clear Sky Optical Depth for Beam Irradiance (taub) {dimensionless}
    ,                        !- ASHRAE Clear Sky Optical Depth for Diffuse Irradiance (taud) {dimensionless}
    1.00;                    !- Sky Clearness

  Site:GroundTemperature:BuildingSurface,19.96,19.94,19.99,20.04,20.09,20.17,20.21,20.24,20.23,20.20,20.17,20.12;

  ScheduleTypeLimits,
    Any Number;              !- Name

  ScheduleTypeLimits,
    Fraction,                !- Name
    0.0,                     !- Lower Limit Value
    1.0,                     !- Upper Limit Value
    CONTINUOUS;              !- Numeric Type

  ScheduleTypeLimits,
    Temperature,             !- Name
    -60,                     !- Lower Limit Value
    200,                     !- Upper Limit Value
    CONTINUOUS,              !- Numeric Type
    Temperature;             !- Unit Type

  ScheduleTypeLimits,
    On/Off,                  !- Name
    0,                       !- Lower Limit Value
    1,                       !- Upper Limit Value
    DISCRETE;                !- Numeric Type

  ScheduleTypeLimits,
    Control Type,            !- Name
    0,                       !- Lower Limit Value
    4,                       !- Upper Limit Value
    DISCRETE;                !- Numeric Type

  ScheduleTypeLimits,
    Humidity,                !- Name
    10,                      !- Lower Limit Value
    95,                      !- Upper Limit Value
    CONTINUOUS;              !- Numeric Type

! Schedule Office Lighting,  ASHRAE 90.1-1989, Section 13 w/addenda

  Schedule:Compact,
    BLDG_LIGHT_SCH,          !- Name
    Fraction,                !- Schedule Type Limits Name
    Through: 12/31,          !- Field 1
    For: Weekdays SummerDesignDay, !- Field 2
    Until: 05:00,0.05,       !- Field 3
    Until: 07:00,0.1,        !- Field 5
    Until: 08:00,0.3,        !- Field 7
    Until: 17:00,0.9,        !- Field 9
    Until: 18:00,0.5,        !- Field 11
    Until: 20:00,0.3,        !- Field 13
    Until: 22:00,0.2,        !- Field 15
    Until: 23:00,0.1,        !- Field 17
    Until: 24:00,0.05,       !- Field 19
    For: Saturday WinterDesignDay, !- Field 21
    Until: 06:00,0.05,       !- Field 22
    Until: 08:00,0.1,        !- Field 24
    Until: 12:00,0.3,        !- Field 26
    Until: 17:00,0.15,       !- Field 28
    Until: 24:00,0.05,       !- Field 30
    For: Sunday Holidays AllOtherDays, !- Field 32
    Until: 24:00,0.05;       !- Field 33

! Schedule Office Receptacle,  ASHRAE 90.1-1989, Section 13
! MODIFIED for increased off-hours plug loads (to account for more IT equipment)

  Schedule:Compact,
    BLDG_EQUIP_SCH,          !- Name
    Fraction,                !- Schedule Type Limits Name
    Through: 12/31,          !- Field 1
    For: Weekdays SummerDesignDay, !- Field 2
    Until: 08:00,0.40,       !- Field 3
    Until: 12:00,0.90,       !- Field 5
    Until: 13:00,0.80,       !- Field 7
    Until: 17:00,0.90,       !- Field 9
    Until: 18:00,0.50,       !- Field 11
    Until: 24:00,0.40,       !- Field 13
    For: Saturday WinterDesignDay, !- Field 15
    Until: 06:00,0.30,       !- Field 16
    Until: 08:00,0.4,        !- Field 18
    Until: 12:00,0.5,        !- Field 20
    Until: 17:00,0.35,       !- Field 22
    Until: 24:00,0.30,       !- Field 24
    For: Sunday Holidays AllOtherDays, !- Field 26
    Until: 24:00,0.30;       !- Field 27

! Schedule Office Occupancy,

  Schedule:Compact,
    BLDG_OCC_SCH,            !- Name
    Fraction,                !- Schedule Type Limits Name
    Through: 12/31,          !- Field 1
    For: Weekdays SummerDesignDay, !- Field 2
    Until: 06:00,0.0,        !- Field 3
    Until: 07:00,0.1,        !- Field 5
    Until: 08:00,0.2,        !- Field 7
    Until: 12:00,0.95,       !- Field 9
    Until: 13:00,0.5,        !- Field 11
    Until: 17:00,0.95,       !- Field 13
    Until: 18:00,0.3,        !- Field 15
    Until: 22:00,0.1,        !- Field 17
    Until: 24:00,0.05,       !- Field 19
    For: Saturday WinterDesignDay, !- Field 21
    Until: 06:00,0.0,        !- Field 22
    Until: 08:00,0.1,        !- Field 24
    Until: 12:00,0.3,        !- Field 26
    Until: 17:00,0.1,        !- Field 28
    Until: 19:00,0.05,       !- Field 30
    Until: 24:00,0.0,        !- Field 32
    For: Sunday Holidays AllOtherDays, !- Field 34
    Until: 06:00,0.0,        !- Field 35
    Until: 18:00,0.05,       !- Field 37
    Until: 24:00,0.0;        !- Field 39

  Schedule:Compact,
    ACTIVITY_SCH,            !- Name
    Any Number,              !- Schedule Type Limits Name
    Through: 12/31,          !- Field 1
    For: AllDays,            !- Field 2
    Until: 24:00,120.;       !- Field 3

  Schedule:Compact,
    WORK_EFF_SCH,            !- Name
    Fraction,                !- Schedule Type Limits Name
    Through: 12/31,          !- Field 1
    For: AllDays,            !- Field 2
    Until: 24:00,0.0;        !- Field 3

  Schedule:Compact,
    AIR_VELO_SCH,            !- Name
    Any Number,              !- Schedule Type Limits Name
    Through: 12/31,          !- Field 1
    For: AllDays,            !- Field 2
    Until: 24:00,0.2;        !- Field 3

  Schedule:Compact,
    CLOTHING_SCH,            !- Name
    Any Number,              !- Schedule Type Limits Name
    Through: 04/30,          !- Field 1
    For: AllDays,            !- Field 2
    Until: 24:00,1.0,        !- Field 3
    Through: 09/30,          !- Field 5
    For: AllDays,            !- Field 6
    Until: 24:00,0.5,        !- Field 7
    Through: 12/31,          !- Field 9
    For: AllDays,            !- Field 10
    Until: 24:00,1.0;        !- Field 11

  Schedule:Compact,
    INFIL_SCH,               !- Name
    on/off,                  !- Schedule Type Limits Name
    Through: 12/31,          !- Field 1
    For: Weekdays SummerDesignDay, !- Field 2
    Until: 06:00,1.0,        !- Field 3
    Until: 22:00,0.0,        !- Field 5
    Until: 24:00,1.0,        !- Field 7
    For: Saturday WinterDesignDay, !- Field 9
    Until: 06:00,1.0,        !- Field 10
    Until: 18:00,0.0,        !- Field 12
    Until: 24:00,1.0,        !- Field 14
    For: Sunday Holidays AllOtherDays, !- Field 16
    Until: 24:00,1.0;        !- Field 17

  Schedule:Compact,
    PlantOnSched,            !- Name
    Any Number,              !- Schedule Type Limits Name
    Through: 12/31,          !- Field 1
    For: AllDays,            !- Field 2
    Until: 24:00,1.0;        !- Field 3

  Schedule:Compact,
    FAN_SCH,                 !- Name
    Fraction,                !- Schedule Type Limits Name
    Through: 12/31,          !- Field 1
    For: AllDays,            !- Field 2
    Until: 24:00,1.0;        !- Field 3

  Schedule:Compact,
    ReheatCoilAvailSched,    !- Name
    Fraction,                !- Schedule Type Limits Name
    Through: 12/31,          !- Field 1
    For: AllDays,            !- Field 2
    Until: 24:00,1.0;        !- Field 3

  Schedule:Compact,
    CoolingCoilAvailSched,   !- Name
    Fraction,                !- Schedule Type Limits Name
    Through: 12/31,          !- Field 1
    For: AllDays,            !- Field 2
    Until: 24:00,1.0;        !- Field 3

  Schedule:Compact,
    HTGSETP_SCH,             !- Name
    Temperature,             !- Schedule Type Limits Name
    Through: 12/31,          !- Field 1
    For: Weekdays,           !- Field 2
    Until: 06:00,13.,        !- Field 3
    Until: 19:00,21.0,       !- Field 5
    Until: 24:00,13.,        !- Field 7
    For SummerDesignDay,     !- Field 9
    Until: 24:00,13.,        !- Field 10
    For: Saturday,           !- Field 12
    Until: 06:00,13.,        !- Field 13
    Until: 13:00,21.0,       !- Field 15
    Until: 24:00,13.,        !- Field 17
    For WinterDesignDay,     !- Field 19
    Until: 24:00,21.0,       !- Field 20
    For: Sunday Holidays AllOtherDays, !- Field 22
    Until: 24:00,13.;        !- Field 23

  Schedule:Compact,
    CLGSETP_SCH,             !- Name
    Temperature,             !- Schedule Type Limits Name
    Through: 12/31,          !- Field 1
    For: Weekdays,           !- Field 2
    Until: 06:00,33.0,       !- Field 3
    Until: 22:00,24.0,       !- Field 5
    Until: 24:00,33.0,       !- Field 7
    For SummerDesignDay,     !- Field 9
    Until: 24:00,24.0,       !- Field 10
    For: Saturday,           !- Field 12
    Until: 06:00,33.0,       !- Field 13
    Until: 18:00,24.0,       !- Field 15
    Until: 24:00,33.0,       !- Field 17
    For WinterDesignDay,     !- Field 19
    Until: 24:00,33.0,       !- Field 20
    For: Sunday Holidays AllOtherDays, !- Field 22
    Until: 24:00,33.0;       !- Field 23

  Schedule:Compact,
    MinOA_Sched,             !- Name
    on/off,                  !- Schedule Type Limits Name
    Through: 12/31,          !- Field 1
    For: Weekdays SummerDesignDay, !- Field 2
    Until: 05:00,0.0,        !- Field 3
    Until: 22:00,1.0,        !- Field 5
    Until: 24:00,0.0,        !- Field 7
    For: Saturday WinterDesignDay, !- Field 9
    Until: 07:00,0.0,        !- Field 10
    Until: 18:00,1.0,        !- Field 12
    Until: 24:00,0.0,        !- Field 14
    For: Sunday Holidays AllOtherDays, !- Field 16
    Until: 24:00,0.0;        !- Field 17

  Schedule:Compact,
    Dual Zone Control Type Sched,  !- Name
    Temperature,             !- Schedule Type Limits Name
    Through: 12/31,          !- Field 1
    For: AllDays,            !- Field 2
    Until: 24:00,4;          !- Field 3

  Schedule:Compact,
    Seasonal-Reset-Supply-Air-Temp-Sch,  !- Name
    Temperature,             !- Schedule Type Limits Name
    Through: 3/31,           !- Field 1
    For: AllDays,            !- Field 2
    Until: 24:00,13.0,       !- Field 3
    Through: 9/30,           !- Field 5
    For: AllDays,            !- Field 6
    Until: 24:00,16.0,       !- Field 7
    Through: 12/31,          !- Field 9
    For: AllDays,            !- Field 10
    Until: 24:00,13.0;       !- Field 11

  Schedule:Compact,
    CW-Loop-Temp-Schedule,   !- Name
    Temperature,             !- Schedule Type Limits Name
    Through: 12/31,          !- Field 1
    For: AllDays,            !- Field 2
    Until: 24:00,6.7;        !- Field 3

  Schedule:Compact,
    HW-Loop-Temp-Schedule,   !- Name
    Temperature,             !- Schedule Type Limits Name
    Through: 12/31,          !- Field 1
    For: AllDays,            !- Field 2
    Until: 24:00,60.;        !- Field 3

  Schedule:Compact,
    Heating-Supply-Air-Temp-Sch,  !- Name
    Temperature,             !- Schedule Type Limits Name
    Through: 12/31,          !- Field 1
    For: AllDays,            !- Field 2
    Until: 24:00,16.0;       !- Field 3

! US National Holidays

  RunPeriodControl:SpecialDays,
    New Years Day,           !- Name
    January 1,               !- Start Date
    1,                       !- Duration {days}
    Holiday;                 !- Special Day Type

  RunPeriodControl:SpecialDays,
    Veterans Day,            !- Name
    November 11,             !- Start Date
    1,                       !- Duration {days}
    Holiday;                 !- Special Day Type

  RunPeriodControl:SpecialDays,
    Christmas,               !- Name
    December 25,             !- Start Date
    1,                       !- Duration {days}
    Holiday;                 !- Special Day Type

  RunPeriodControl:SpecialDays,
    Independence Day,        !- Name
    July 4,                  !- Start Date
    1,                       !- Duration {days}
    Holiday;                 !- Special Day Type

  RunPeriodControl:SpecialDays,
    MLK Day,                 !- Name
    3rd Monday in January,   !- Start Date
    1,                       !- Duration {days}
    Holiday;                 !- Special Day Type

  RunPeriodControl:SpecialDays,
    Presidents Day,          !- Name
    3rd Monday in February,  !- Start Date
    1,                       !- Duration {days}
    Holiday;                 !- Special Day Type

  RunPeriodControl:SpecialDays,
    Memorial Day,            !- Name
    Last Monday in May,      !- Start Date
    1,                       !- Duration {days}
    Holiday;                 !- Special Day Type

  RunPeriodControl:SpecialDays,
    Labor Day,               !- Name
    1st Monday in September, !- Start Date
    1,                       !- Duration {days}
    Holiday;                 !- Special Day Type

  RunPeriodControl:SpecialDays,
    Columbus Day,            !- Name
    2nd Monday in October,   !- Start Date
    1,                       !- Duration {days}
    Holiday;                 !- Special Day Type

  RunPeriodControl:SpecialDays,
    Thanksgiving,            !- Name
    4th Thursday in November,!- Start Date
    1,                       !- Duration {days}
    Holiday;                 !- Special Day Type

! Daylight Saving Period in US

  RunPeriodControl:DaylightSavingTime,
    1st Sunday in April,     !- Start Date
    Last Sunday in October;  !- End Date

  Material,
    INS-wall-R_21,           !- Name
    MediumRough,             !- Roughness
    0.1397,                  !- Thickness {m}
    0.043,                   !- Conductivity {W/m-K}
    265,                     !- Density {kg/m3}
    836.8,                   !- Specific Heat {J/kg-K}
    0.9,                     !- Thermal Absorptance
    0.7,                     !- Solar Absorptance
    0.7;                     !- Visible Absorptance

  Material,
    GP01 5/8  GYPSUM,        !- Name
    Smooth,                  !- Roughness
    0.015875,                !- Thickness {m}
    0.16,                    !- Conductivity {W/m-K}
    800,                     !- Density {kg/m3}
    1090,                    !- Specific Heat {J/kg-K}
    0.9,                     !- Thermal Absorptance
    0.7,                     !- Solar Absorptance
    0.7;                     !- Visible Absorptance

  Material,
    ROOFING - BUILT UP ROOFING - 3 / 8 IN,  !- Name
    VeryRough,               !- Roughness
    9.4999997E-03,           !- Thickness {m}
    0.1600000,               !- Conductivity {W/m-K}
    1121.290,                !- Density {kg/m3}
    1460.000,                !- Specific Heat {J/kg-K}
    0.8000000,               !- Thermal Absorptance
    0.2000000,               !- Solar Absorptance
    0.2000000;               !- Visible Absorptance

  Material,
    INS-Roof-R_40,           !- Name
    MediumRough,             !- Roughness
    0.2032,                  !- Thickness {m}
    0.0288,                  !- Conductivity {W/m-K}
    265,                     !- Density {kg/m3}
    836.8,                   !- Specific Heat {J/kg-K}
    0.9,                     !- Thermal Absorptance
    0.7,                     !- Solar Absorptance
    0.7;                     !- Visible Absorptance

  Material,
    MAT-METAL,               !- Name
    MediumSmooth,            !- Roughness
    0.001524,                !- Thickness {m}
    45.006,                  !- Conductivity {W/m-K}
    7680,                    !- Density {kg/m3}
    418.4,                   !- Specific Heat {J/kg-K}
    0.9,                     !- Thermal Absorptance
    0.7,                     !- Solar Absorptance
    0.7;                     !- Visible Absorptance

  Material,
    MAT-CC05 8  HW CONCRETE, !- Name
    Rough,                   !- Roughness
    0.20321,                 !- Thickness {m}
    1.311,                   !- Conductivity {W/m-K}
    2240,                    !- Density {kg/m3}
    836.8,                   !- Specific Heat {J/kg-K}
    0.9,                     !- Thermal Absorptance
    0.7,                     !- Solar Absorptance
    0.7;                     !- Visible Absorptance

  Material,
    Ceiling Tiles 3/4 office,!- Name
    MediumSmooth,            !- Roughness
    0.01905,                 !- Thickness {m}
    5.7000000E-02,           !- Conductivity {W/m-K}
    288.0000,                !- Density {kg/m3}
    1339.000,                !- Specific Heat {J/kg-K}
    0.9000000,               !- Thermal Absorptance
    0.7000000,               !- Solar Absorptance
    0.7000000;               !- Visible Absorptance

  Material,
    MAT-CC05 4  MW CONCRETE, !- Name
    Rough,                   !- Roughness
    0.1000,                  !- Thickness {m}
    0.858,                   !- Conductivity {W/m-K}
    1968,                    !- Density {kg/m3}
    836.8,                   !- Specific Heat {J/kg-K}
    0.9,                     !- Thermal Absorptance
    0.7,                     !- Solar Absorptance
    0.7;                     !- Visible Absorptance

  Material,
    1.5  MW CONCRETE,        !- Name
    Rough,                   !- Roughness
    0.038,                   !- Thickness {m}
    0.858,                   !- Conductivity {W/m-K}
    1968,                    !- Density {kg/m3}
    836.8,                   !- Specific Heat {J/kg-K}
    0.9,                     !- Thermal Absorptance
    0.7,                     !- Solar Absorptance
    0.7;                     !- Visible Absorptance

  Material,
    Wood 6inch,              !- Name
    MediumSmooth,            !- Roughness
    0.15,                    !- Thickness {m}
    0.12,                    !- Conductivity {W/m-K}
    540.0000,                !- Density {kg/m3}
    1210,                    !- Specific Heat {J/kg-K}
    0.9000000,               !- Thermal Absorptance
    0.7000000,               !- Solar Absorptance
    0.7000000;               !- Visible Absorptance

  Material,
    4 inch prefab stone wall panel,  !- Name
    Smooth,                  !- Roughness
    0.1016,                  !- Thickness {m}
    0.858,                   !- Conductivity {W/m-K}
    1968,                    !- Density {kg/m3}
    836.8,                   !- Specific Heat {J/kg-K}
    0.9,                     !- Thermal Absorptance
    0.7,                     !- Solar Absorptance
    0.7;                     !- Visible Absorptance

  Material:AirGap,
    AIRSPACE - VERTICAL,     !- Name
    0.1700000;               !- Thermal Resistance {m2-K/W}

  Material,
    Very High Reflectivity Surface,  !- Name
    Smooth,                  !- Roughness
    0.0005,                  !- Thickness {m}
    237,                     !- Conductivity {W/m-K}
    2702,                    !- Density {kg/m3}
    903,                     !- Specific Heat {J/kg-K}
    0.90,                    !- Thermal Absorptance
    0.05,                    !- Solar Absorptance
    0.05;                    !- Visible Absorptance

  WindowMaterial:Glazing,
    Clear Acrylic Plastic,   !- Name
    SpectralAverage,         !- Optical Data Type
    ,                        !- Window Glass Spectral Data Set Name
    0.003,                   !- Thickness {m}
    0.92,                    !- Solar Transmittance at Normal Incidence
    0.05,                    !- Front Side Solar Reflectance at Normal Incidence
    0.05,                    !- Back Side Solar Reflectance at Normal Incidence
    0.92,                    !- Visible Transmittance at Normal Incidence
    0.05,                    !- Front Side Visible Reflectance at Normal Incidence
    0.05,                    !- Back Side Visible Reflectance at Normal Incidence
    0.00,                    !- Infrared Transmittance at Normal Incidence
    0.90,                    !- Front Side Infrared Hemispherical Emissivity
    0.90,                    !- Back Side Infrared Hemispherical Emissivity
    0.90;                    !- Conductivity {W/m-K}

  WindowMaterial:Glazing,
    Diffusing Acrylic Plastic,  !- Name
    SpectralAverage,         !- Optical Data Type
    ,                        !- Window Glass Spectral Data Set Name
    0.0022,                  !- Thickness {m}
    0.90,                    !- Solar Transmittance at Normal Incidence
    0.08,                    !- Front Side Solar Reflectance at Normal Incidence
    0.08,                    !- Back Side Solar Reflectance at Normal Incidence
    0.90,                    !- Visible Transmittance at Normal Incidence
    0.08,                    !- Front Side Visible Reflectance at Normal Incidence
    0.08,                    !- Back Side Visible Reflectance at Normal Incidence
    0.00,                    !- Infrared Transmittance at Normal Incidence
    0.90,                    !- Front Side Infrared Hemispherical Emissivity
    0.90,                    !- Back Side Infrared Hemispherical Emissivity
    0.90;                    !- Conductivity {W/m-K}

  Material:NoMass,
    MAT-SHEATH,              !- Name
    Rough,                   !- Roughness
    0.36256,                 !- Thermal Resistance {m2-K/W}
    0.9,                     !- Thermal Absorptance
    0.7,                     !- Solar Absorptance
    0.7;                     !- Visible Absorptance

  Material:NoMass,
    CP02 CARPET PAD,         !- Name
    VeryRough,               !- Roughness
    0.21648,                 !- Thermal Resistance {m2-K/W}
    0.9,                     !- Thermal Absorptance
    0.7,                     !- Solar Absorptance
    0.7;                     !- Visible Absorptance

  Material:NoMass,
    R21Foamboard-SHEATH,     !- Name
    Smooth,                  !- Roughness
    3.804,                   !- Thermal Resistance {m2-K/W}
    0.9,                     !- Thermal Absorptance
    0.7,                     !- Solar Absorptance
    0.7;                     !- Visible Absorptance

! Contaminated VALUE! 0.453->0.483 BTG targeting ASHRAE minimums Solar Transmittance at Normal Incidence

  WindowMaterial:Glazing,
    1334 Grey_60.vgs,        !- Name
    SpectralAverage,         !- Optical Data Type
    ,                        !- Window Glass Spectral Data Set Name