! European Standard CEN 13791 Test A-1a.idf
! Basic file description: Whole Building test.
! Author:   R. H. Henninger,  GARD Analytics, Inc.
! Date:     January 9, 2007
! Run:
! Building: Geometry A with west oriented single pane window with external shade.
! Internal: Variable 15 W/m2, 50% radiant, 50% convective.
! Ventilation:  Option a - constant 1 ach
! System:   None.
! Plant:    None.
! Modified:

  Version,8.5;

  Site:Location,
    UNKNOWN,                 !- Name
    40.0,                    !- Latitude {deg}
    0.0,                     !- Longitude {deg}
    0,                       !- Time Zone {hr}
    0;                       !- Elevation {m}

  SimulationControl,
    No,                      !- Do Zone Sizing Calculation
    No,                      !- Do System Sizing Calculation
    No,                      !- Do Plant Sizing Calculation
    Yes,                     !- Run Simulation for Sizing Periods
    No;                      !- Run Simulation for Weather File Run Periods

  SizingPeriod:DesignDay,
    LONDON/GATWICK Modified Ann Clg .4% Condns DB=>MWB,  !- Name
    6,                       !- Month
    15,                      !- Day of Month
    SummerDesignDay,         !- Day Type
    34,                      !- Maximum Dry-Bulb Temperature {C}
    12.0,                    !- Daily Dry-Bulb Temperature Range {deltaC}
    DifferenceSchedule,      !- Dry-Bulb Temperature Range Modifier Type
    Outdoor Temp Deltas,     !- Dry-Bulb Temperature Range Modifier Day Schedule Name
    Wetbulb,                 !- Humidity Condition Type
    18.6,                    !- Wetbulb or DewPoint at Maximum Dry-Bulb {C}
    ,                        !- Humidity Condition Day Schedule Name
    ,                        !- Humidity Ratio at Maximum Dry-Bulb {kgWater/kgDryAir}
    ,                        !- Enthalpy at Maximum Dry-Bulb {J/kg}
    ,                        !- Daily Wet-Bulb Temperature Range {deltaC}
    100582.,                 !- Barometric Pressure {Pa}
    1.0,                     !- Wind Speed {m/s}
    0,                       !- Wind Direction {deg}
    No,                      !- Rain Indicator
    No,                      !- Snow Indicator
    No,                      !- Daylight Saving Time Indicator
    Schedule,                !- Solar Model Indicator
    Solar Data,              !- Beam Solar Day Schedule Name
    Diffuse Data,            !- Diffuse Solar Day Schedule Name
    ,                        !- ASHRAE Clear Sky Optical Depth for Beam Irradiance (taub) {dimensionless}
    ,                        !- ASHRAE Clear Sky Optical Depth for Diffuse Irradiance (taud) {dimensionless}
    1.00;                    !- Sky Clearness

 ! LONDON/GATWICK_GBR Annual Heating Design Conditions Wind Speed=1.5m/s Wind Dir=80
 ! Coldest Month=FEB
 ! LONDON/GATWICK_GBR Annual Heating 99.6%, MaxDB=-4.6°C

  SizingPeriod:DesignDay,
    LONDON/GATWICK Ann Htg 99.6% Condns DB,  !- Name
    2,                       !- Month
    21,                      !- Day of Month
    WinterDesignDay,         !- Day Type
    -4.6,                    !- Maximum Dry-Bulb Temperature {C}
    0.0,                     !- Daily Dry-Bulb Temperature Range {deltaC}
    DefaultMultipliers,      !- Dry-Bulb Temperature Range Modifier Type
    ,                        !- Dry-Bulb Temperature Range Modifier Day Schedule Name
    Wetbulb,                 !- Humidity Condition Type
    -4.6,                    !- Wetbulb or DewPoint at Maximum Dry-Bulb {C}
    ,                        !- Humidity Condition Day Schedule Name
    ,                        !- Humidity Ratio at Maximum Dry-Bulb {kgWater/kgDryAir}
    ,                        !- Enthalpy at Maximum Dry-Bulb {J/kg}
    ,                        !- Daily Wet-Bulb Temperature Range {deltaC}
    100582.,                 !- Barometric Pressure {Pa}
    1.5,                     !- Wind Speed {m/s}
    80,                      !- Wind Direction {deg}
    No,                      !- Rain Indicator
    No,                      !- Snow Indicator
    No,                      !- Daylight Saving Time Indicator
    ASHRAEClearSky,          !- Solar Model Indicator
    ,                        !- Beam Solar Day Schedule Name
    ,                        !- Diffuse Solar Day Schedule Name
    ,                        !- ASHRAE Clear Sky Optical Depth for Beam Irradiance (taub) {dimensionless}
    ,                        !- ASHRAE Clear Sky Optical Depth for Diffuse Irradiance (taud) {dimensionless}
    0.00;                    !- Sky Clearness

  Schedule:Day:List,
    Outdoor Temp Deltas,     !- Name
    Any Number,              !- Schedule Type Limits Name
    No,                      !- Interpolate to Timestep
    15,                      !- Minutes per Item
    9.950,                   !- Value 1
    10.100,                  !- <none>
    10.250,                  !- <none>
    10.400,                  !- <none>
    10.550,                  !- <none>
    10.700,                  !- <none>
    10.850,                  !- <none>
    11.000,                  !- <none>
    11.125,                  !- <none>
    11.250,                  !- <none>
    11.375,                  !- <none>
    11.500,                  !- <none>
    11.600,                  !- <none>
    11.700,                  !- <none>
    11.800,                  !- <none>
    11.900,                  !- <none>
    11.925,                  !- <none>
    11.950,                  !- <none>
    11.975,                  !- <none>
    12.000,                  !- <none>
    11.950,                  !- <none>
    11.900,                  !- <none>
    11.850,                  !- <none>
    11.800,                  !- <none>
    11.650,                  !- <none>
    11.500,                  !- <none>
    11.350,                  !- <none>
    11.200,                  !- <none>
    10.925,                  !- <none>
    10.650,                  !- <none>
    10.375,                  !- <none>
    10.100,                  !- <none>
    9.625,                   !- <none>
    9.150,                   !- <none>
    8.675,                   !- <none>
    8.200,                   !- <none>
    7.825,                   !- <none>
    7.450,                   !- <none>
    7.075,                   !- <none>
    6.700,                   !- <none>
    6.200,                   !- <none>
    5.700,                   !- <none>
    5.200,                   !- <none>
    4.700,                   !- <none>
    4.225,                   !- <none>
    3.750,                   !- <none>
    3.275,                   !- <none>
    2.800,                   !- <none>
    2.425,                   !- <none>
    2.050,                   !- <none>
    1.675,                   !- <none>
    1.300,                   !- <none>
    1.075,                   !- <none>
    0.850,                   !- <none>
    0.625,                   !- <none>
    0.400,                   !- <none>
    0.300,                   !- <none>
    0.200,                   !- <none>
    0.100,                   !- <none>
    0.000,                   !- <none>
    0.100,                   !- <none>
    0.200,                   !- <none>
    0.300,                   !- <none>
    0.400,                   !- <none>
    0.600,                   !- <none>
    0.800,                   !- <none>
    1.000,                   !- <none>
    1.200,                   !- <none>
    1.525,                   !- <none>
    1.850,                   !- <none>
    2.175,                   !- <none>
    2.500,                   !- <none>
    2.900,                   !- <none>
    3.300,                   !- <none>
    3.700,                   !- <none>
    4.100,                   !- <none>
    4.475,                   !- <none>
    4.850,                   !- <none>
    5.225,                   !- <none>
    5.600,                   !- <none>
    5.950,                   !- <none>
    6.300,                   !- <none>
    6.650,                   !- <none>
    7.000,                   !- <none>
    7.300,                   !- <none>
    7.600,                   !- <none>
    7.900,                   !- <none>
    8.200,                   !- <none>
    8.425,                   !- <none>
    8.650,                   !- <none>
    8.875,                   !- <none>
    9.100,                   !- <none>
    9.275,                   !- <none>
    9.450,                   !- <none>
    9.625,                   !- <none>
    9.800;                   !- <none>

  Schedule:Day:List,
    Solar Data,              !- Name
    Any Number,              !- Schedule Type Limits Name
    No,                      !- Interpolate to Timestep
    15,                      !- Minutes per Item
    0,                       !- Value 1
    0,                       !- <none>
    0,                       !- <none>
    0,                       !- <none>
    0,                       !- <none>
    0,                       !- <none>
    0,                       !- <none>
    0,                       !- <none>
    0,                       !- <none>
    0,                       !- <none>
    0,                       !- <none>
    0,                       !- <none>
    0,                       !- <none>
    0,                       !- <none>
    0,                       !- <none>
    0,                       !- <none>
    3.481,                   !- <none>
    6.962,                   !- <none>
    10.442,                  !- <none>
    13.923,                  !- <none>
    114.799,                 !- <none>
    215.675,                 !- <none>
    316.551,                 !- <none>
    417.427,                 !- <none>
    472.452,                 !- <none>
    527.476,                 !- <none>
    582.501,                 !- <none>
    637.526,                 !- <none>
    664.679,                 !- <none>
    691.833,                 !- <none>
    718.987,                 !- <none>
    746.140,                 !- <none>
    761.191,                 !- <none>
    776.242,                 !- <none>
    791.293,                 !- <none>
    806.344,                 !- <none>
    814.685,                 !- <none>
    823.026,                 !- <none>
    831.367,                 !- <none>
    839.708,                 !- <none>
    844.244,                 !- <none>
    848.780,                 !- <none>
    853.316,                 !- <none>
    857.852,                 !- <none>
    859.261,                 !- <none>
    860.671,                 !- <none>
    862.080,                 !- <none>
    863.489,                 !- <none>
    862.062,                 !- <none>
    860.634,                 !- <none>
    859.207,                 !- <none>
    857.780,                 !- <none>
    853.225,                 !- <none>
    848.671,                 !- <none>
    844.116,                 !- <none>
    839.561,                 !- <none>
    831.199,                 !- <none>
    822.838,                 !- <none>
    814.476,                 !- <none>
    806.115,                 !- <none>
    791.040,                 !- <none>
    775.966,                 !- <none>
    760.892,                 !- <none>
    745.817,                 !- <none>
    718.637,                 !- <none>
    691.458,                 !- <none>
    664.278,                 !- <none>
    637.098,                 !- <none>
    582.056,                 !- <none>
    527.014,                 !- <none>
    471.972,                 !- <none>
    416.930,                 !- <none>
    316.164,                 !- <none>
    215.398,                 !- <none>
    114.632,                 !- <none>
    13.867,                  !- <none>
    10.400,                  !- <none>
    6.933,                   !- <none>
    3.467,                   !- <none>
    0,                       !- <none>
    0,                       !- <none>
    0,                       !- <none>
    0,                       !- <none>
    0,                       !- <none>
    0,                       !- <none>
    0,                       !- <none>
    0,                       !- <none>
    0,                       !- <none>
    0,                       !- <none>
    0,                       !- <none>
    0,                       !- <none>
    0,                       !- <none>
    0,                       !- <none>
    0,                       !- <none>
    0,                       !- <none>
    0;                       !- <none>

  Schedule:Day:List,
    Diffuse Data,            !- Name
    Any Number,              !- Schedule Type Limits Name
    No,                      !- Interpolate to Timestep
    15,                      !- Minutes per Item
    0,                       !- Value 1
    0,                       !- <none>
    0,                       !- <none>
    0,                       !- <none>
    0,                       !- <none>
    0,                       !- <none>
    0,                       !- <none>
    0,                       !- <none>
    0,                       !- <none>
    0,                       !- <none>
    0,                       !- <none>
    0,                       !- <none>
    0,                       !- <none>
    0,                       !- <none>
    0,                       !- <none>
    0,                       !- <none>
    0.75,                    !- <none>
    1.50,                    !- <none>
    2.25,                    !- <none>
    3.00,                    !- <none>
    17.75,                   !- <none>
    32.50,                   !- <none>
    47.25,                   !- <none>
    62.00,                   !- <none>
    69.25,                   !- <none>
    76.50,                   !- <none>
    83.75,                   !- <none>
    91.00,                   !- <none>
    94.50,                   !- <none>
    98.00,                   !- <none>
    101.50,                  !- <none>
    105.00,                  !- <none>
    106.75,                  !- <none>
    108.50,                  !- <none>
    110.25,                  !- <none>
    112.00,                  !- <none>
    113.25,                  !- <none>
    114.50,                  !- <none>
    115.75,                  !- <none>
    117.00,                  !- <none>
    117.50,                  !- <none>
    118.00,                  !- <none>
    118.50,                  !- <none>
    119.00,                  !- <none>
    119.25,                  !- <none>
    119.50,                  !- <none>
    119.75,                  !- <none>
    120.00,                  !- <none>
    119.75,                  !- <none>
    119.50,                  !- <none>
    119.25,                  !- <none>
    119.00,                  !- <none>
    118.50,                  !- <none>
    118.00,                  !- <none>
    117.50,                  !- <none>
    117.00,                  !- <none>
    115.75,                  !- <none>
    114.50,                  !- <none>
    113.25,                  !- <none>
    112.00,                  !- <none>
    110.25,                  !- <none>
    108.50,                  !- <none>
    106.75,                  !- <none>
    105.00,                  !- <none>
    101.50,                  !- <none>
    98.00,                   !- <none>
    94.50,                   !- <none>
    91.00,                   !- <none>
    83.75,                   !- <none>
    76.50,                   !- <none>
    69.25,                   !- <none>
    62.00,                   !- <none>
    47.25,                   !- <none>
    32.50,                   !- <none>
    17.75,                   !- <none>
    3.00,                    !- <none>
    2.25,                    !- <none>
    1.50,                    !- <none>
    0.75,                    !- <none>
    0,                       !- <none>
    0,                       !- <none>
    0,                       !- <none>
    0,                       !- <none>
    0,                       !- <none>
    0,                       !- <none>
    0,                       !- <none>
    0,                       !- <none>
    0,                       !- <none>
    0,                       !- <none>
    0,                       !- <none>
    0,                       !- <none>
    0,                       !- <none>
    0,                       !- <none>
    0,                       !- <none>
    0,                       !- <none>
    0;                       !- <none>

  ScheduleTypeLimits,
    Any Number,              !- Name
    0.0,                     !- Lower Limit Value
    1000.0,                  !- Upper Limit Value
    Continuous;              !- Numeric Type

  Material,
    Type 1-OuterLayer,       !- Name
    Smooth,                  !- Roughness
    0.115,                   !- Thickness {m}
    0.99,                    !- Conductivity {W/m-K}
    1800.,                   !- Density {kg/m3}
    850.0,                   !- Specific Heat {J/kg-K}
    0.000001,                !- Thermal Absorptance
    0.6,                     !- Solar Absorptance
    0.000001;                !- Visible Absorptance

  Material,
    Type 1-InsulatingLayer,  !- Name
    Smooth,                  !- Roughness
    0.06,                    !- Thickness {m}
    0.04,                    !- Conductivity {W/m-K}
    30.,                     !- Density {kg/m3}
    850.0,                   !- Specific Heat {J/kg-K}
    0.000001,                !- Thermal Absorptance
    0.6,                     !- Solar Absorptance
    0.000001;                !- Visible Absorptance

  Material,
    Type 1-Masonry,          !- Name
    Smooth,                  !- Roughness
    0.175,                   !- Thickness {m}
    0.79,                    !- Conductivity {W/m-K}
    1600.,                   !- Density {kg/m3}
    850.0,                   !- Specific Heat {J/kg-K}
    0.000001,                !- Thermal Absorptance
    0.6,                     !- Solar Absorptance
    0.000001;                !- Visible Absorptance

  Material,
    Type 1-InternalPlaster,  !- Name
    Smooth,                  !- Roughness
    0.015,                   !- Thickness {m}
    0.70,                    !- Conductivity {W/m-K}
    1400.,                   !- Density {kg/m3}
    850.0,                   !- Specific Heat {J/kg-K}
    0.000001,                !- Thermal Absorptance
    1.0,                     !- Solar Absorptance
    0.000001;                !- Visible Absorptance

  Material,
    Type 2-GypsumPlaster,    !- Name
    Smooth,                  !- Roughness
    0.012,                   !- Thickness {m}
    0.21,                    !- Conductivity {W/m-K}
    900.,                    !- Density {kg/m3}
    850.0,                   !- Specific Heat {J/kg-K}
    0.000001,                !- Thermal Absorptance
    1.0,                     !- Solar Absorptance
    0.000001;                !- Visible Absorptance

  Material,
    Type 2-InsulatingLayer,  !- Name
    Smooth,                  !- Roughness
    0.10,                    !- Thickness {m}
    0.04,                    !- Conductivity {W/m-K}
    30.,                     !- Density {kg/m3}
    850.0,                   !- Specific Heat {J/kg-K}
    0.000001,                !- Thermal Absorptance
    0.6,                     !- Solar Absorptance
    0.000001;                !- Visible Absorptance

  Material,
    Type 3-PlasticCovering-Interior,  !- Name
    Smooth,                  !- Roughness
    0.004,                   !- Thickness {m}
    0.23,                    !- Conductivity {W/m-K}
    1500.,                   !- Density {kg/m3}
    1500.0,                  !- Specific Heat {J/kg-K}
    0.000001,                !- Thermal Absorptance
    1.0,                     !- Solar Absorptance
    0.000001;                !- Visible Absorptance

  Material,
    Type 3-PlasticCovering-Exterior,  !- Name
    Smooth,                  !- Roughness
    0.004,                   !- Thickness {m}
    0.23,                    !- Conductivity {W/m-K}
    1500.,                   !- Density {kg/m3}
    1500.0,                  !- Specific Heat {J/kg-K}
    0.000001,                !- Thermal Absorptance
    0.6,                     !- Solar Absorptance
    0.000001;                !- Visible Absorptance

  Material,
    Type 3-CementFloor,      !- Name
    Smooth,                  !- Roughness
    0.06,                    !- Thickness {m}
    1.40,                    !- Conductivity {W/m-K}
    2000.,                   !- Density {kg/m3}
    850.0,                   !- Specific Heat {J/kg-K}
    0.000001,                !- Thermal Absorptance
    0.6,                     !- Solar Absorptance
    0.000001;                !- Visible Absorptance

  Material,
    Type 3-InsulatingLayer,  !- Name
    Smooth,                  !- Roughness
    0.04,                    !- Thickness {m}
    0.04,                    !- Conductivity {W/m-K}
    50.,                     !- Density {kg/m3}
    850.0,                   !- Specific Heat {J/kg-K}
    0.000001,                !- Thermal Absorptance
    0.6,                     !- Solar Absorptance
    0.000001;                !- Visible Absorptance

  Material,
    Type 3-Concrete-Interior,!- Name
    Smooth,                  !- Roughness
    0.18,                    !- Thickness {m}
    2.10,                    !- Conductivity {W/m-K}
    2400.,                   !- Density {kg/m3}
    850.0,                   !- Specific Heat {J/kg-K}
    0.000001,                !- Thermal Absorptance
    1.0,                     !- Solar Absorptance
    0.000001;                !- Visible Absorptance

  Material,
    Type 3-Concrete-Exterior,!- Name
    Smooth,                  !- Roughness
    0.18,                    !- Thickness {m}
    2.10,                    !- Conductivity {W/m-K}
    2400.,                   !- Density {kg/m3}
    850.0,                   !- Specific Heat {J/kg-K}
    0.000001,                !- Thermal Absorptance
    0.6,                     !- Solar Absorptance
    0.000001;                !- Visible Absorptance

  Material,
    Type 4-PlasticCovering-Interior,  !- Name
    Smooth,                  !- Roughness
    0.004,                   !- Thickness {m}
    0.23,                    !- Conductivity {W/m-K}
    1500.,                   !- Density {kg/m3}
    1500.0,                  !- Specific Heat {J/kg-K}
    0.000001,                !- Thermal Absorptance
    1.0,                     !- Solar Absorptance
    0.000001;                !- Visible Absorptance

  Material,
    Type 4-PlasticCovering-Exterior,  !- Name
    Smooth,                  !- Roughness
    0.004,                   !- Thickness {m}
    0.23,                    !- Conductivity {W/m-K}
    1500.,                   !- Density {kg/m3}
    1500.0,                  !- Specific Heat {J/kg-K}
    0.000001,                !- Thermal Absorptance
    0.6,                     !- Solar Absorptance
    0.000001;                !- Visible Absorptance

  Material,
    Type 4-CementFloor,      !- Name
    Smooth,                  !- Roughness
    0.06,                    !- Thickness {m}
    1.4,                     !- Conductivity {W/m-K}
    2000.,                   !- Density {kg/m3}
    850.0,                   !- Specific Heat {J/kg-K}
    0.000001,                !- Thermal Absorptance
    0.6,                     !- Solar Absorptance
    0.000001;                !- Visible Absorptance

  Material,
    Type 4-InsulatingLayer,  !- Name
    Smooth,                  !- Roughness
    0.04,                    !- Thickness {m}
    0.04,                    !- Conductivity {W/m-K}
    50.,                     !- Density {kg/m3}
    850.0,                   !- Specific Heat {J/kg-K}
    0.000001,                !- Thermal Absorptance
    0.6,                     !- Solar Absorptance
    0.000001;                !- Visible Absorptance

  Material,
    Type 4-Concrete,         !- Name
    Smooth,                  !- Roughness
    0.18,                    !- Thickness {m}
    2.1,                     !- Conductivity {W/m-K}
    2400.,                   !- Density {kg/m3}
    850.0,                   !- Specific Heat {J/kg-K}
    0.000001,                !- Thermal Absorptance
    0.6,                     !- Solar Absorptance
    0.000001;                !- Visible Absorptance

  Material,
    Type 4-InsulatingLayer2, !- Name
    Smooth,                  !- Roughness
    0.10,                    !- Thickness {m}
    0.04,                    !- Conductivity {W/m-K}
    50.,                     !- Density {kg/m3}
    850.0,                   !- Specific Heat {J/kg-K}
    0.000001,                !- Thermal Absorptance
    0.6,                     !- Solar Absorptance
    0.000001;                !- Visible Absorptance

  Material,
    Type 4-AcousticBoard-Interior,  !- Name
    Smooth,                  !- Roughness
    0.02,                    !- Thickness {m}
    0.06,                    !- Conductivity {W/m-K}
    400.,                    !- Density {kg/m3}
    840.0,                   !- Specific Heat {J/kg-K}
    0.000001,                !- Thermal Absorptance
    1.0,                     !- Solar Absorptance
    0.000001;                !- Visible Absorptance

  Material,
    Type 4-AcousticBoard-Exterior,  !- Name
    Smooth,                  !- Roughness
    0.02,                    !- Thickness {m}
    0.06,                    !- Conductivity {W/m-K}
    400.,                    !- Density {kg/m3}
    840.0,                   !- Specific Heat {J/kg-K}
    0.000001,                !- Thermal Absorptance
    0.6,                     !- Solar Absorptance
    0.000001;                !- Visible Absorptance

  Material,
    Type 5-ExternalLayer,    !- Name
    Smooth,                  !- Roughness
    0.004,                   !- Thickness {m}
    0.23,                    !- Conductivity {W/m-K}
    1500.,                   !- Density {kg/m3}
    1300.0,                  !- Specific Heat {J/kg-K}
    0.000001,                !- Thermal Absorptance
    0.9,                     !- Solar Absorptance
    0.000001;                !- Visible Absorptance

  Material,
    Type 5-InsulatingLayer,  !- Name
    Smooth,                  !- Roughness
    0.08,                    !- Thickness {m}
    0.04,                    !- Conductivity {W/m-K}
    50.,                     !- Density {kg/m3}
    850.0,                   !- Specific Heat {J/kg-K}
    0.000001,                !- Thermal Absorptance
    0.6,                     !- Solar Absorptance
    0.000001;                !- Visible Absorptance

  Material,
    Type 5-Concrete,         !- Name
    Smooth,                  !- Roughness
    0.20,                    !- Thickness {m}
    2.1,                     !- Conductivity {W/m-K}
    2400.,                   !- Density {kg/m3}
    850.0,                   !- Specific Heat {J/kg-K}
    0.000001,                !- Thermal Absorptance
    1.0,                     !- Solar Absorptance
    0.000001;                !- Visible Absorptance

  Construction,
    CONST 1,                 !- Name
    Type 1-OuterLayer,       !- Outside Layer
    Type 1-InsulatingLayer,  !- Layer 2
    Type 1-Masonry,          !- Layer 3
    Type 1-InternalPlaster;  !- Layer 4

  Construction,
    CONST 2,                 !- Name
    Type 2-GypsumPlaster,    !- Outside Layer
    Type 2-InsulatingLayer,  !- Layer 2
    Type 2-GypsumPlaster;    !- Layer 3

  Construction,
    CONST 3-Ceiling,         !- Name
    Type 3-PlasticCovering-Exterior,  !- Outside Layer
    Type 3-CementFloor,      !- Layer 2
    Type 3-InsulatingLayer,  !- Layer 3
    Type 3-Concrete-Interior;!- Layer 4

  Construction,
    CONST 3-Floor,           !- Name
    Type 3-Concrete-Exterior,!- Outside Layer
    Type 3-InsulatingLayer,  !- Layer 2
    Type 3-CementFloor,      !- Layer 3
    Type 3-PlasticCovering-Interior;  !- Layer 4

  Construction,
    CONST 4-Ceiling,         !- Name
    Type 4-PlasticCovering-Exterior,  !- Outside Layer
    Type 4-CementFloor,      !- Layer 2
    Type 4-InsulatingLayer,  !- Layer 3
    Type 4-Concrete,         !- Layer 4
    Type 4-InsulatingLayer2, !- Layer 5
    Type 4-AcousticBoard-Interior;  !- Layer 6

  Construction,
    CONST 4-Floor,           !- Name
    Type 4-AcousticBoard-Exterior,  !- Outside Layer
    Type 4-InsulatingLayer2, !- Layer 2
    Type 4-Concrete,         !- Layer 3
    Type 4-InsulatingLayer,  !- Layer 4
    Type 4-CementFloor,      !- Layer 5
    Type 4-PlasticCovering-Interior;  !- Layer 6

  Construction,
    CONST 5,                 !- Name
    Type 5-ExternalLayer,    !- Outside Layer
    Type 5-InsulatingLayer,  !- Layer 2
    Type 5-Concrete;         !- Layer 3

!  Input for First Try with Single Pane Glass and Exterior Shade

  WindowMaterial:Glazing,
    Glass Type 1,            !- Name
    SpectralAverage,         !- Optical Data Type
    ,                        !- Window Glass Spectral Data Set Name
    0.003175,                !- Thickness {m}
    0.84,                    !- Solar Transmittance at Normal Incidence
    0.08,                    !- Front Side Solar Reflectance at Normal Incidence
    0.08,                    !- Back Side Solar Reflectance at Normal Incidence
    0.84,                    !- Visible Transmittance at Normal Incidence
    0.08,                    !- Front Side Visible Reflectance at Normal Incidence
    0.08,                    !- Back Side Visible Reflectance at Normal Incidence
    0.0,                     !- Infrared Transmittance at Normal Incidence
    0.000001,                !- Front Side Infrared Hemispherical Emissivity
    0.000001,                !- Back Side Infrared Hemispherical Emissivity
    100.;                    !- Conductivity {W/m-K}

!  MATERIAL:WINDOWGLASS,
!    Glass Type 1,            !- Name
!    SpectralAverage,         !- Optical Data Type
!    ,                        !- Name of Window Glass Spectral Data Set
!    0.003175,                !- Thickness {m}