!-Generator IDFEditor 1.37c
!-Option SortedOrder
!-NOTE: All comments with '!-' are ignored by the IDFEditor and are generated automatically.
!-      Use '!' comments if they need to be retained when using the IDFEditor.
!-   ===========  ALL OBJECTS IN CLASS: VERSION ===========

  Version,8.5;

!-   ===========  ALL OBJECTS IN CLASS: SIMULATIONCONTROL ===========

  SimulationControl,
    No,                      !- Do Zone Sizing Calculation
    No,                      !- Do System Sizing Calculation
    No,                      !- Do Plant Sizing Calculation
    No,                      !- Run Simulation for Sizing Periods
    Yes;                     !- Run Simulation for Weather File Run Periods

!-   ===========  ALL OBJECTS IN CLASS: BUILDING ===========

  Building,
    Untitled,                !- Name
    0.0,                     !- North Axis {deg}
    City,                    !- Terrain
    0.04,                    !- Loads Convergence Tolerance Value
    0.4,                     !- Temperature Convergence Tolerance Value {deltaC}
    FullInteriorAndExterior, !- Solar Distribution
    25,                      !- Maximum Number of Warmup Days
    6;                       !- Minimum Number of Warmup Days

!-   ===========  ALL OBJECTS IN CLASS: TIMESTEP ===========

  Timestep,4;

!-   ===========  ALL OBJECTS IN CLASS: RUNPERIOD ===========

  RunPeriod,
    ,                        !- Name
    1,                       !- Begin Month
    21,                      !- Begin Day of Month
    2,                       !- End Month
    10,                      !- End Day of Month
    UseWeatherFile,          !- Day of Week for Start Day
    No,                      !- Use Weather File Holidays and Special Days
    No,                      !- Use Weather File Daylight Saving Period
    No,                      !- Apply Weekend Holiday Rule
    Yes,                     !- Use Weather File Rain Indicators
    Yes,                     !- Use Weather File Snow Indicators
    1;                       !- Number of Times Runperiod to be Repeated

 ! Denver Stapleton Intl Arpt CO USA Annual Heating Design Conditions Wind Speed=2.3m/s Wind Dir=180
 ! Coldest Month=December
 ! Denver Stapleton Intl Arpt CO USA Annual Heating 99%, MaxDB=-16°C

  SizingPeriod:DesignDay,
    Denver Stapleton Intl Arpt Ann Htg 99% Condns DB,  !- Name
    12,                      !- Month
    21,                      !- Day of Month
    WinterDesignDay,         !- Day Type
    -16,                     !- Maximum Dry-Bulb Temperature {C}
    0.0,                     !- Daily Dry-Bulb Temperature Range {deltaC}
    ,                        !- Dry-Bulb Temperature Range Modifier Type
    ,                        !- Dry-Bulb Temperature Range Modifier Day Schedule Name
    Wetbulb,                 !- Humidity Condition Type
    -16,                     !- Wetbulb or DewPoint at Maximum Dry-Bulb {C}
    ,                        !- Humidity Condition Day Schedule Name
    ,                        !- Humidity Ratio at Maximum Dry-Bulb {kgWater/kgDryAir}
    ,                        !- Enthalpy at Maximum Dry-Bulb {J/kg}
    ,                        !- Daily Wet-Bulb Temperature Range {deltaC}
    83411.,                  !- Barometric Pressure {Pa}
    2.3,                     !- Wind Speed {m/s}
    180,                     !- Wind Direction {deg}
    No,                      !- Rain Indicator
    No,                      !- Snow Indicator
    No,                      !- Daylight Saving Time Indicator
    ASHRAEClearSky,          !- Solar Model Indicator
    ,                        !- Beam Solar Day Schedule Name
    ,                        !- Diffuse Solar Day Schedule Name
    ,                        !- ASHRAE Clear Sky Optical Depth for Beam Irradiance (taub) {dimensionless}
    ,                        !- ASHRAE Clear Sky Optical Depth for Diffuse Irradiance (taud) {dimensionless}
    0.00;                    !- Sky Clearness

 ! Denver Stapleton Intl Arpt Annual Cooling Design Conditions Wind Speed=4m/s Wind Dir=120
 ! Hottest Month=July
 ! Denver Stapleton Intl Arpt CO USA Annual Cooling (DB=>MWB) 1%, MaxDB=32.6°C MWB=15.6°C

  SizingPeriod:DesignDay,
    Denver Stapleton Intl Arpt Ann Clg 1% Condns DB=>MWB,  !- Name
    7,                       !- Month
    21,                      !- Day of Month
    SummerDesignDay,         !- Day Type
    32.6,                    !- Maximum Dry-Bulb Temperature {C}
    15.2,                    !- Daily Dry-Bulb Temperature Range {deltaC}
    ,                        !- Dry-Bulb Temperature Range Modifier Type
    ,                        !- Dry-Bulb Temperature Range Modifier Day Schedule Name
    Wetbulb,                 !- Humidity Condition Type
    15.6,                    !- Wetbulb or DewPoint at Maximum Dry-Bulb {C}
    ,                        !- Humidity Condition Day Schedule Name
    ,                        !- Humidity Ratio at Maximum Dry-Bulb {kgWater/kgDryAir}
    ,                        !- Enthalpy at Maximum Dry-Bulb {J/kg}
    ,                        !- Daily Wet-Bulb Temperature Range {deltaC}
    83411.,                  !- Barometric Pressure {Pa}
    4,                       !- Wind Speed {m/s}
    120,                     !- Wind Direction {deg}
    No,                      !- Rain Indicator
    No,                      !- Snow Indicator
    No,                      !- Daylight Saving Time Indicator
    ASHRAEClearSky,          !- Solar Model Indicator
    ,                        !- Beam Solar Day Schedule Name
    ,                        !- Diffuse Solar Day Schedule Name
    ,                        !- ASHRAE Clear Sky Optical Depth for Beam Irradiance (taub) {dimensionless}
    ,                        !- ASHRAE Clear Sky Optical Depth for Diffuse Irradiance (taud) {dimensionless}
    1.00;                    !- Sky Clearness

!-   ===========  ALL OBJECTS IN CLASS: RUNPERIODCONTROL:SPECIALDAYS ===========

  RunPeriodControl:SpecialDays,
    New Years Day,           !- Name
    January 1,               !- Start Date
    1,                       !- Duration {days}
    Holiday;                 !- Special Day Type

  RunPeriodControl:SpecialDays,
    Veterans Day,            !- Name
    November 11,             !- Start Date
    1,                       !- Duration {days}
    Holiday;                 !- Special Day Type

  RunPeriodControl:SpecialDays,
    Christmas,               !- Name
    December 25,             !- Start Date
    1,                       !- Duration {days}
    Holiday;                 !- Special Day Type

  RunPeriodControl:SpecialDays,
    Independence Day,        !- Name
    July 4,                  !- Start Date
    1,                       !- Duration {days}
    Holiday;                 !- Special Day Type

  RunPeriodControl:SpecialDays,
    MLK Day,                 !- Name
    3rd Monday in January,   !- Start Date
    1,                       !- Duration {days}
    Holiday;                 !- Special Day Type

  RunPeriodControl:SpecialDays,
    Presidents Day,          !- Name
    3rd Monday in February,  !- Start Date
    1,                       !- Duration {days}
    Holiday;                 !- Special Day Type

  RunPeriodControl:SpecialDays,
    Memorial Day,            !- Name
    Last Monday in May,      !- Start Date
    1,                       !- Duration {days}
    Holiday;                 !- Special Day Type

  RunPeriodControl:SpecialDays,
    Labor Day,               !- Name
    1st Monday in September, !- Start Date
    1,                       !- Duration {days}
    Holiday;                 !- Special Day Type

  RunPeriodControl:SpecialDays,
    Columbus Day,            !- Name
    2nd Monday in October,   !- Start Date
    1,                       !- Duration {days}
    Holiday;                 !- Special Day Type

  RunPeriodControl:SpecialDays,
    Thanksgiving,            !- Name
    4th Thursday in November,!- Start Date
    1,                       !- Duration {days}
    Holiday;                 !- Special Day Type

!-   ===========  ALL OBJECTS IN CLASS: RUNPERIODCONTROL:DAYLIGHTSAVINGTIME ===========
! Daylight Saving Period in US

  RunPeriodControl:DaylightSavingTime,
    2nd Sunday in March,     !- Start Date
    1st Sunday in November;  !- End Date

!-   ===========  ALL OBJECTS IN CLASS: SITE:GROUNDTEMPERATURE:BUILDINGSURFACE ===========

  Site:GroundTemperature:BuildingSurface,0,50,50,50,50,50,50,50,50,50,50,50;

!-   ===========  ALL OBJECTS IN CLASS: SCHEDULETYPELIMITS ===========

  ScheduleTypeLimits,
    Any Number;              !- Name

  ScheduleTypeLimits,
    Fraction,                !- Name
    0.0,                     !- Lower Limit Value
    1.0,                     !- Upper Limit Value
    CONTINUOUS;              !- Numeric Type

  ScheduleTypeLimits,
    Temperature,             !- Name
    -60,                     !- Lower Limit Value
    200,                     !- Upper Limit Value
    CONTINUOUS;              !- Numeric Type

  ScheduleTypeLimits,
    On/Off,                  !- Name
    0,                       !- Lower Limit Value
    1,                       !- Upper Limit Value
    DISCRETE;                !- Numeric Type

  ScheduleTypeLimits,
    Control Type,            !- Name
    0,                       !- Lower Limit Value
    4,                       !- Upper Limit Value
    DISCRETE;                !- Numeric Type

  ScheduleTypeLimits,
    Humidity,                !- Name
    10,                      !- Lower Limit Value
    90,                      !- Upper Limit Value
    CONTINUOUS;              !- Numeric Type

  ScheduleTypeLimits,
    Number;                  !- Name

!-   ===========  ALL OBJECTS IN CLASS: SCHEDULE:COMPACT ===========

  Schedule:Compact,
    Always On,               !- Name
    Fraction,                !- Schedule Type Limits Name
    Through: 12/31,          !- Field 1
    For: AllDays,            !- Field 2
    Until: 24:00,1.0;        !- Field 3

  Schedule:Compact,
    Always Off,              !- Name
    Fraction,                !- Schedule Type Limits Name
    Through: 12/31,          !- Field 1
    For: AllDays,            !- Field 2
    Until: 24:00,0.0;        !- Field 3

!-   ===========  ALL OBJECTS IN CLASS: MATERIAL ===========

  Material,
    Exterior,                !- Name
    MediumRough,             !- Roughness
    0.0508,                  !- Thickness {m}
    0.03,                    !- Conductivity {W/m-K}
    43,                      !- Density {kg/m3}
    1210;                    !- Specific Heat {J/kg-K}

  Material,
    Interior,                !- Name
    MediumRough,             !- Roughness
    0.2032,                  !- Thickness {m}
    1.95,                    !- Conductivity {W/m-K}
    2240,                    !- Density {kg/m3}
    900;                     !- Specific Heat {J/kg-K}

!-   ===========  ALL OBJECTS IN CLASS: CONSTRUCTION ===========

  Construction,
    Exterior,                !- Name
    Exterior;                !- Outside Layer

  Construction,
    Interior,                !- Name
    Interior;                !- Outside Layer

!-   ===========  ALL OBJECTS IN CLASS: GLOBALGEOMETRYRULES ===========

  GlobalGeometryRules,
    UpperLeftCorner,         !- Starting Vertex Position
    Counterclockwise,        !- Vertex Entry Direction
    Absolute;                !- Coordinate System

!-   ===========  ALL OBJECTS IN CLASS: ZONE ===========

  Zone,
    Zone1,                   !- Name
    0.0,                     !- Direction of Relative North {deg}
    0.0,                     !- X Origin {m}
    0.0,                     !- Y Origin {m}
    0.0,                     !- Z Origin {m}
    ,                        !- Type
    1;                       !- Multiplier

!-   ===========  ALL OBJECTS IN CLASS: BUILDINGSURFACE:DETAILED ===========

  BuildingSurface:Detailed,
    Floor1,                  !- Name
    Floor,                   !- Surface Type
    Exterior,                !- Construction Name
    Zone1,                   !- Zone Name
    Ground,                  !- Outside Boundary Condition
    ,                        !- Outside Boundary Condition Object
    NoSun,                   !- Sun Exposure
    NoWind,                  !- Wind Exposure
    ,                        !- View Factor to Ground
    4,                       !- Number of Vertices
    3.048000000000,3.048000000000,0.000000000000,  !- X,Y,Z ==> Vertex 1 {m}
    3.048000000000,0.000000000000,0.000000000000,  !- X,Y,Z ==> Vertex 2 {m}
    0.000000000000,0.000000000000,0.000000000000,  !- X,Y,Z ==> Vertex 3 {m}
    0.000000000000,3.048000000000,0.000000000000;  !- X,Y,Z ==> Vertex 4 {m}

  BuildingSurface:Detailed,
    WallN1,                  !- Name
    Wall,                    !- Surface Type
    Exterior,                !- Construction Name
    Zone1,                   !- Zone Name
    Ground,                  !- Outside Boundary Condition
    ,                        !- Outside Boundary Condition Object
    NoSun,                   !- Sun Exposure
    NoWind,                  !- Wind Exposure
    ,                        !- View Factor to Ground
    4,                       !- Number of Vertices
    3.048000000000,3.048000000000,3.048000000000,  !- X,Y,Z ==> Vertex 1 {m}
    3.048000000000,3.048000000000,0.000000000000,  !- X,Y,Z ==> Vertex 2 {m}
    0.000000000000,3.048000000000,0.000000000000,  !- X,Y,Z ==> Vertex 3 {m}
    0.000000000000,3.048000000000,3.048000000000;  !- X,Y,Z ==> Vertex 4 {m}

  BuildingSurface:Detailed,
    WallW1,                  !- Name
    Wall,                    !- Surface Type
    Exterior,                !- Construction Name
    Zone1,                   !- Zone Name
    Ground,                  !- Outside Boundary Condition
    ,                        !- Outside Boundary Condition Object
    NoSun,                   !- Sun Exposure
    NoWind,                  !- Wind Exposure
    ,                        !- View Factor to Ground
    4,                       !- Number of Vertices
    0.000000000000,3.048000000000,3.048000000000,  !- X,Y,Z ==> Vertex 1 {m}
    0.000000000000,3.048000000000,0.000000000000,  !- X,Y,Z ==> Vertex 2 {m}
    0.000000000000,0.000000000000,0.000000000000,  !- X,Y,Z ==> Vertex 3 {m}
    0.000000000000,0.000000000000,3.048000000000;  !- X,Y,Z ==> Vertex 4 {m}

  BuildingSurface:Detailed,
    WallS2,                  !- Name
    Wall,                    !- Surface Type
    Exterior,                !- Construction Name
    Zone1,                   !- Zone Name
    Ground,                  !- Outside Boundary Condition
    ,                        !- Outside Boundary Condition Object
    NoSun,                   !- Sun Exposure
    NoWind,                  !- Wind Exposure
    ,                        !- View Factor to Ground
    4,                       !- Number of Vertices
    3.048000000000,0.000000000000,3.048000000000,  !- X,Y,Z ==> Vertex 1 {m}
    3.048000000000,0.000000000000,0.000000000000,  !- X,Y,Z ==> Vertex 2 {m}
    6.096000000000,0.000000000000,0.000000000000,  !- X,Y,Z ==> Vertex 3 {m}
    6.096000000000,0.000000000000,3.048000000000;  !- X,Y,Z ==> Vertex 4 {m}

  BuildingSurface:Detailed,
    WallE2,                  !- Name
    Wall,                    !- Surface Type
    Exterior,                !- Construction Name
    Zone1,                   !- Zone Name
    Ground,                  !- Outside Boundary Condition
    ,                        !- Outside Boundary Condition Object
    NoSun,                   !- Sun Exposure
    NoWind,                  !- Wind Exposure
    0.0,                     !- View Factor to Ground
    4,                       !- Number of Vertices
    6.096000000000,0.000000000000,3.048000000000,  !- X,Y,Z ==> Vertex 1 {m}
    6.096000000000,0.000000000000,0.000000000000,  !- X,Y,Z ==> Vertex 2 {m}
    6.096000000000,3.048000000000,0.000000000000,  !- X,Y,Z ==> Vertex 3 {m}
    6.096000000000,3.048000000000,3.048000000000;  !- X,Y,Z ==> Vertex 4 {m}

  BuildingSurface:Detailed,
    Roof1,                   !- Name
    Roof,                    !- Surface Type
    Exterior,                !- Construction Name
    Zone1,                   !- Zone Name
    Ground,                  !- Outside Boundary Condition
    ,                        !- Outside Boundary Condition Object
    NoSun,                   !- Sun Exposure
    NoWind,                  !- Wind Exposure
    0.0,                     !- View Factor to Ground
    4,                       !- Number of Vertices
    0.000000000000,3.048000000000,3.048000000000,  !- X,Y,Z ==> Vertex 1 {m}
    0.000000000000,0.000000000000,3.048000000000,  !- X,Y,Z ==> Vertex 2 {m}
    3.048000000000,0.000000000000,3.048000000000,  !- X,Y,Z ==> Vertex 3 {m}
    3.048000000000,3.048000000000,3.048000000000;  !- X,Y,Z ==> Vertex 4 {m}

  BuildingSurface:Detailed,
    WallS1,                  !- Name
    Wall,                    !- Surface Type
    Exterior,                !- Construction Name
    Zone1,                   !- Zone Name
    Ground,                  !- Outside Boundary Condition
    ,                        !- Outside Boundary Condition Object
    NoSun,                   !- Sun Exposure
    NoWind,                  !- Wind Exposure
    0.0,                     !- View Factor to Ground
    4,                       !- Number of Vertices
    0.000000000000,0.000000000000,3.048000000000,  !- X,Y,Z ==> Vertex 1 {m}
    0.000000000000,0.000000000000,0.000000000000,  !- X,Y,Z ==> Vertex 2 {m}
    3.048000000000,0.000000000000,0.000000000000,  !- X,Y,Z ==> Vertex 3 {m}
    3.048000000000,0.000000000000,3.048000000000;  !- X,Y,Z ==> Vertex 4 {m}

  BuildingSurface:Detailed,
    Roof2,                   !- Name
    Roof,                    !- Surface Type
    Exterior,                !- Construction Name
    Zone1,                   !- Zone Name
    Ground,                  !- Outside Boundary Condition
    ,                        !- Outside Boundary Condition Object
    NoSun,                   !- Sun Exposure
    NoWind,                  !- Wind Exposure
    0.0,                     !- View Factor to Ground
    4,                       !- Number of Vertices
    3.048000000000,3.048000000000,3.048000000000,  !- X,Y,Z ==> Vertex 1 {m}
    3.048000000000,0.000000000000,3.048000000000,  !- X,Y,Z ==> Vertex 2 {m}
    6.096000000000,0.000000000000,3.048000000000,  !- X,Y,Z ==> Vertex 3 {m}
    6.096000000000,3.048000000000,3.048000000000;  !- X,Y,Z ==> Vertex 4 {m}

  BuildingSurface:Detailed,
    WallN2,                  !- Name
    Wall,                    !- Surface Type
    Exterior,                !- Construction Name
    Zone1,                   !- Zone Name
    Ground,                  !- Outside Boundary Condition
    ,                        !- Outside Boundary Condition Object
    NoSun,                   !- Sun Exposure
    NoWind,                  !- Wind Exposure
    0.0,                     !- View Factor to Ground
    4,                       !- Number of Vertices
    6.096000000000,3.048000000000,3.048000000000,  !- X,Y,Z ==> Vertex 1 {m}
    6.096000000000,3.048000000000,0.000000000000,  !- X,Y,Z ==> Vertex 2 {m}
    3.048000000000,3.048000000000,0.000000000000,  !- X,Y,Z ==> Vertex 3 {m}
    3.048000000000,3.048000000000,3.048000000000;  !- X,Y,Z ==> Vertex 4 {m}

  BuildingSurface:Detailed,
    WallMass,                !- Name
    Wall,                    !- Surface Type
    Interior,                !- Construction Name
    Zone1,                   !- Zone Name
    Zone,                    !- Outside Boundary Condition
    Zone1,                   !- Outside Boundary Condition Object
    NoSun,                   !- Sun Exposure
    NoWind,                  !- Wind Exposure
    0.0,                     !- View Factor to Ground
    4,                       !- Number of Vertices
    3.048000000000,3.048000000000,3.048000000000,  !- X,Y,Z ==> Vertex 1 {m}
    3.048000000000,3.048000000000,0.000000000000,  !- X,Y,Z ==> Vertex 2 {m}
    3.048000000000,0.000000000000,0.000000000000,  !- X,Y,Z ==> Vertex 3 {m}
    3.048000000000,0.000000000000,3.048000000000;  !- X,Y,Z ==> Vertex 4 {m}

  BuildingSurface:Detailed,
    Floor2,                  !- Name
    Floor,                   !- Surface Type
    Exterior,                !- Construction Name
    Zone1,                   !- Zone Name
    Ground,                  !- Outside Boundary Condition
    ,                        !- Outside Boundary Condition Object
    NoSun,                   !- Sun Exposure
    NoWind,                  !- Wind Exposure
    0.0,                     !- View Factor to Ground
    4,                       !- Number of Vertices
    6.096000000000,3.048000000000,0.000000000000,  !- X,Y,Z ==> Vertex 1 {m}
    6.096000000000,0.000000000000,0.000000000000,  !- X,Y,Z ==> Vertex 2 {m}
    3.048000000000,0.000000000000,0.000000000000,  !- X,Y,Z ==> Vertex 3 {m}
    3.048000000000,3.048000000000,0.000000000000;  !- X,Y,Z ==> Vertex 4 {m}

!-   ===========  ALL OBJECTS IN CLASS: OUTPUT:VARIABLEDICTIONARY ===========

  Output:VariableDictionary,IDF;

!-   ===========  ALL OBJECTS IN CLASS: OUTPUT:VARIABLE ===========

  Output:Variable,*,Site Ground Temperature,Hourly,Always On;

  Output:Variable,*,Zone Mean Air Temperature,Hourly,Always On;

