! ASHRAE Analytical ExtSolRad.idf
! Basic file description: ASHRAE Analytical Test-Exterior Solar Radiation-Opaque Surface.
! Author:   R. H. Henninger,  GARD Analytics, Inc.
! Date:     December 19, 2000
! Run:      Fixed interior and exterior temperatures
! Building: Cube 3m x 3m x 3m, one surface type.
! Internal: None.
! System:   Zone temperature and outdoor temperature kept constant at same value.
! Plant:    None.
! Modified: Conforms with Beta 4 input
! 2 design days to facilitate reverse DD testing.
 Lead Input;

  Version,8.5;

  Site:Location,
    ATLANTA,                 !- Name
    33.65,                   !- Latitude {deg}
    -84.42,                  !- Longitude {deg}
    -5.000000,               !- Time Zone {hr}
    315.0;                   !- Elevation {m}

  SimulationControl,
    No,                      !- Do Zone Sizing Calculation
    No,                      !- Do System Sizing Calculation
    No,                      !- Do Plant Sizing Calculation
    No,                      !- Run Simulation for Sizing Periods
    Yes;                     !- Run Simulation for Weather File Run Periods

! Following Design Days used for Reverse DD testing.
 ! TAMPA_FL_USA Annual Heating Design Conditions Wind Speed=3.1m/s Wind Dir=10
 ! Coldest Month=January
 ! TAMPA_FL_USA Annual Heating 99%, MaxDB=4.8°C

  SizingPeriod:DesignDay,
    TAMPA Ann Htg 99% Condns DB,  !- Name
    1,                       !- Month
    21,                      !- Day of Month
    WinterDesignDay,         !- Day Type
    4.8,                     !- Maximum Dry-Bulb Temperature {C}
    0.0,                     !- Daily Dry-Bulb Temperature Range {deltaC}
    ,                        !- Dry-Bulb Temperature Range Modifier Type
    ,                        !- Dry-Bulb Temperature Range Modifier Day Schedule Name
    Wetbulb,                 !- Humidity Condition Type
    4.8,                     !- Wetbulb or DewPoint at Maximum Dry-Bulb {C}
    ,                        !- Humidity Condition Day Schedule Name
    ,                        !- Humidity Ratio at Maximum Dry-Bulb {kgWater/kgDryAir}
    ,                        !- Enthalpy at Maximum Dry-Bulb {J/kg}
    ,                        !- Daily Wet-Bulb Temperature Range {deltaC}
    101289.,                 !- Barometric Pressure {Pa}
    3.1,                     !- Wind Speed {m/s}
    10,                      !- Wind Direction {deg}
    No,                      !- Rain Indicator
    No,                      !- Snow Indicator
    No,                      !- Daylight Saving Time Indicator
    ASHRAEClearSky,          !- Solar Model Indicator
    ,                        !- Beam Solar Day Schedule Name
    ,                        !- Diffuse Solar Day Schedule Name
    ,                        !- ASHRAE Clear Sky Optical Depth for Beam Irradiance (taub) {dimensionless}
    ,                        !- ASHRAE Clear Sky Optical Depth for Diffuse Irradiance (taud) {dimensionless}
    0.00;                    !- Sky Clearness

 ! TAMPA Annual Cooling Design Conditions Wind Speed=4m/s Wind Dir=270
 ! Hottest Month=July
 ! TAMPA_FL_USA Annual Cooling (DB=>MWB) 1%, MaxDB=33°C MWB=25.3°C

  SizingPeriod:DesignDay,
    TAMPA Ann Clg 1% Condns DB=>MWB,  !- Name
    7,                       !- Month
    21,                      !- Day of Month
    SummerDesignDay,         !- Day Type
    33,                      !- Maximum Dry-Bulb Temperature {C}
    8.1,                     !- Daily Dry-Bulb Temperature Range {deltaC}
    ,                        !- Dry-Bulb Temperature Range Modifier Type
    ,                        !- Dry-Bulb Temperature Range Modifier Day Schedule Name
    Wetbulb,                 !- Humidity Condition Type
    25.3,                    !- Wetbulb or DewPoint at Maximum Dry-Bulb {C}
    ,                        !- Humidity Condition Day Schedule Name
    ,                        !- Humidity Ratio at Maximum Dry-Bulb {kgWater/kgDryAir}
    ,                        !- Enthalpy at Maximum Dry-Bulb {J/kg}
    ,                        !- Daily Wet-Bulb Temperature Range {deltaC}
    101289.,                 !- Barometric Pressure {Pa}
    4,                       !- Wind Speed {m/s}
    270,                     !- Wind Direction {deg}
    No,                      !- Rain Indicator
    No,                      !- Snow Indicator
    No,                      !- Daylight Saving Time Indicator
    ASHRAEClearSky,          !- Solar Model Indicator
    ,                        !- Beam Solar Day Schedule Name
    ,                        !- Diffuse Solar Day Schedule Name
    ,                        !- ASHRAE Clear Sky Optical Depth for Beam Irradiance (taub) {dimensionless}
    ,                        !- ASHRAE Clear Sky Optical Depth for Diffuse Irradiance (taud) {dimensionless}
    1.00;                    !- Sky Clearness

  RunPeriod,
    ,                        !- Name
    8,                       !- Begin Month
    21,                      !- Begin Day of Month
    8,                       !- End Month
    21,                      !- End Day of Month
    ,                        !- Day of Week for Start Day
    Yes,                     !- Use Weather File Holidays and Special Days
    Yes,                     !- Use Weather File Daylight Saving Period
    ,                        !- Apply Weekend Holiday Rule
    ,                        !- Use Weather File Rain Indicators
    ;                        !- Use Weather File Snow Indicators

  RunPeriodControl:DaylightSavingTime,
    04/01,                   !- Start Date
    10/28;                   !- End Date

  Material,
    LAYER 1,                 !- Name
    Smooth,                  !- Roughness
    0.10000,                 !- Thickness {m}
    1.15000,                 !- Conductivity {W/m-K}
    1.000,                   !- Density {kg/m3}
    100,                     !- Specific Heat {J/kg-K}
    0.000001,                !- Thermal Absorptance
    0.400000,                !- Solar Absorptance
    0.000001;                !- Visible Absorptance

  Material,
    LAYER 2,                 !- Name
    Smooth,                  !- Roughness
    0.10000,                 !- Thickness {m}
    1.05000,                 !- Conductivity {W/m-K}
    1.000,                   !- Density {kg/m3}
    100,                     !- Specific Heat {J/kg-K}
    0.000001,                !- Thermal Absorptance
    0.000001,                !- Solar Absorptance
    0.000001;                !- Visible Absorptance

  Material,
    LAYER 3,                 !- Name
    Smooth,                  !- Roughness
    0.10000,                 !- Thickness {m}
    1.150000,                !- Conductivity {W/m-K}
    1.000,                   !- Density {kg/m3}
    100,                     !- Specific Heat {J/kg-K}
    0.000001,                !- Thermal Absorptance
    0.000001,                !- Solar Absorptance
    0.000001;                !- Visible Absorptance

             ! Material layer names follow:

  Construction,
    TESTSURFACE,             !- Name
    LAYER 1,                 !- Outside Layer
    LAYER 2,                 !- Layer 2
    LAYER 3;                 !- Layer 3

 End Lead Input;
 Simulation Data;

  Timestep,6;

! INSIDE CONVECTION ALGORITHM,     SIMPLE;

  SurfaceProperty:ConvectionCoefficients,
    ZONE SURFACE SOUTH,      !- Surface Name
    Inside,                  !- Convection Coefficient 1 Location
    Value,                   !- Convection Coefficient 1 Type
    3.076,                   !- Convection Coefficient 1 {W/m2-K}
    ,                        !- Convection Coefficient 1 Schedule Name
    ,                        !- Convection Coefficient 1 User Curve Name
    Outside,                 !- Convection Coefficient 2 Location
    Value,                   !- Convection Coefficient 2 Type
    10.22,                   !- Convection Coefficient 2 {W/m2-K}
    ,                        !- Convection Coefficient 2 Schedule Name
    ;                        !- Convection Coefficient 2 User Curve Name

  SurfaceProperty:ConvectionCoefficients,
    ZONE SURFACE NORTH,      !- Surface Name
    Inside,                  !- Convection Coefficient 1 Location
    Value,                   !- Convection Coefficient 1 Type
    3.076,                   !- Convection Coefficient 1 {W/m2-K}
    ,                        !- Convection Coefficient 1 Schedule Name
    ,                        !- Convection Coefficient 1 User Curve Name
    Outside,                 !- Convection Coefficient 2 Location
    Value,                   !- Convection Coefficient 2 Type
    10.22,                   !- Convection Coefficient 2 {W/m2-K}
    ,                        !- Convection Coefficient 2 Schedule Name
    ;                        !- Convection Coefficient 2 User Curve Name

  SurfaceProperty:ConvectionCoefficients,
    ZONE SURFACE EAST,       !- Surface Name
    Inside,                  !- Convection Coefficient 1 Location
    Value,                   !- Convection Coefficient 1 Type
    3.076,                   !- Convection Coefficient 1 {W/m2-K}
    ,                        !- Convection Coefficient 1 Schedule Name
    ,                        !- Convection Coefficient 1 User Curve Name
    Outside,                 !- Convection Coefficient 2 Location
    Value,                   !- Convection Coefficient 2 Type
    10.22,                   !- Convection Coefficient 2 {W/m2-K}
    ,                        !- Convection Coefficient 2 Schedule Name
    ;                        !- Convection Coefficient 2 User Curve Name

  SurfaceProperty:ConvectionCoefficients,
    ZONE SURFACE WEST,       !- Surface Name
    Inside,                  !- Convection Coefficient 1 Location
    Schedule,                !- Convection Coefficient 1 Type
    ,                        !- Convection Coefficient 1 {W/m2-K}
    Sched-3.076,             !- Convection Coefficient 1 Schedule Name
    ,                        !- Convection Coefficient 1 User Curve Name
    Outside,                 !- Convection Coefficient 2 Location
    Schedule,                !- Convection Coefficient 2 Type
    ,                        !- Convection Coefficient 2 {W/m2-K}
    Sched-10.22,             !- Convection Coefficient 2 Schedule Name
    ;                        !- Convection Coefficient 2 User Curve Name

  ScheduleTypeLimits,
    AnyNumber;               !- Name

  Schedule:Compact,
    Sched-3.076,             !- Name
    AnyNumber,               !- Schedule Type Limits Name
    Through: 12/31,          !- Field 1
    For: AllDays,            !- Field 2
    Until: 24:00,3.076;      !- Field 3

  Schedule:Compact,
    Sched-10.22,             !- Name
    AnyNumber,               !- Schedule Type Limits Name
    Through: 12/31,          !- Field 1
    For: AllDays,            !- Field 2
    Until: 24:00,10.22;      !- Field 3

  SurfaceProperty:ConvectionCoefficients,
    ZONE SURFACE FLOOR,      !- Surface Name
    Outside,                 !- Convection Coefficient 1 Location
    Schedule,                !- Convection Coefficient 1 Type
    ,                        !- Convection Coefficient 1 {W/m2-K}
    Sched-10.22,             !- Convection Coefficient 1 Schedule Name
    ,                        !- Convection Coefficient 1 User Curve Name
    Inside,                  !- Convection Coefficient 2 Location
    Schedule,                !- Convection Coefficient 2 Type
    ,                        !- Convection Coefficient 2 {W/m2-K}
    Sched-3.076,             !- Convection Coefficient 2 Schedule Name
    ;                        !- Convection Coefficient 2 User Curve Name

  SurfaceProperty:ConvectionCoefficients,
    ZONE SURFACE CEILING,    !- Surface Name
    Inside,                  !- Convection Coefficient 1 Location
    Value,                   !- Convection Coefficient 1 Type
    3.076,                   !- Convection Coefficient 1 {W/m2-K}
    ,                        !- Convection Coefficient 1 Schedule Name
    ,                        !- Convection Coefficient 1 User Curve Name
    Outside,                 !- Convection Coefficient 2 Location
    Value,                   !- Convection Coefficient 2 Type
    10.22,                   !- Convection Coefficient 2 {W/m2-K}
    ,                        !- Convection Coefficient 2 Schedule Name
    ;                        !- Convection Coefficient 2 User Curve Name

  ShadowCalculation,
    AverageOverDaysInFrequency,  !- Calculation Method
    1;                       !- Calculation Frequency

  Site:GroundReflectance,0,0,0,0,0,0,0,0,0,0,0,0;

  Building,
    ExtSolRad,               !- Name
    0.0,                     !- North Axis {deg}
    Country,                 !- Terrain
    3.9999999E-02,           !- Loads Convergence Tolerance Value
    4.0000002E-03,           !- Temperature Convergence Tolerance Value {deltaC}
    FullInteriorAndExterior, !- Solar Distribution
    ,                        !- Maximum Number of Warmup Days
    6;                       !- Minimum Number of Warmup Days

  Zone,
    ZONE ONE,                !- Name
    0.0000000E+00,           !- Direction of Relative North {deg}
    0.0000000E+00,           !- X Origin {m}
    0.0000000E+00,           !- Y Origin {m}
    0.0000000E+00,           !- Z Origin {m}
    1,                       !- Type
    1,                       !- Multiplier
    3.000,                   !- Ceiling Height {m}
    27.0000;                 !- Volume {m3}

  GlobalGeometryRules,
    UpperLeftCorner,         !- Starting Vertex Position
    CounterClockWise,        !- Vertex Entry Direction
    relative;                !- Coordinate System

  BuildingSurface:Detailed,
    ZONE SURFACE SOUTH,      !- Name
    WALL,                    !- Surface Type
    TESTSURFACE,             !- Construction Name
    ZONE ONE,                !- Zone Name
    Outdoors,                !- Outside Boundary Condition
    ,                        !- Outside Boundary Condition Object
    SunExposed,              !- Sun Exposure
    NoWind,                  !- Wind Exposure
    0.0000000,               !- View Factor to Ground
    4,                       !- Number of Vertices
    0.000,0.000,3.000,  !- X,Y,Z ==> Vertex 1 {m}
    0.000,0.000,0.0,  !- X,Y,Z ==> Vertex 2 {m}
    3.000,0.000,0.0,  !- X,Y,Z ==> Vertex 3 {m}
    3.000,0.000,3.000;  !- X,Y,Z ==> Vertex 4 {m}

  BuildingSurface:Detailed,
    ZONE SURFACE WEST,       !- Name
    WALL,                    !- Surface Type
    TESTSURFACE,             !- Construction Name
    ZONE ONE,                !- Zone Name
    Surface,                 !- Outside Boundary Condition
    ZONE SURFACE WEST,       !- Outside Boundary Condition Object
    NoSun,                   !- Sun Exposure
    NoWind,                  !- Wind Exposure
    0.0000000,               !- View Factor to Ground
    4,                       !- Number of Vertices
    0.000,3.000,3.000,  !- X,Y,Z ==> Vertex 1 {m}
    0.000,3.000,0.000,  !- X,Y,Z ==> Vertex 2 {m}
    0.000,0.000,0.000,  !- X,Y,Z ==> Vertex 3 {m}
    0.000,0.000,3.000;  !- X,Y,Z ==> Vertex 4 {m}

  BuildingSurface:Detailed,
    ZONE SURFACE NORTH,      !- Name
    WALL,                    !- Surface Type
    TESTSURFACE,             !- Construction Name
    ZONE ONE,                !- Zone Name
    Surface,                 !- Outside Boundary Condition
    ZONE SURFACE NORTH,      !- Outside Boundary Condition Object
    NoSun,                   !- Sun Exposure
    NoWind,                  !- Wind Exposure
    0.0000000,               !- View Factor to Ground
    4,                       !- Number of Vertices
    3.000,3.000,3.000,  !- X,Y,Z ==> Vertex 1 {m}
    3.000,3.000,0.000,  !- X,Y,Z ==> Vertex 2 {m}
    0.000,3.000,0.000,  !- X,Y,Z ==> Vertex 3 {m}
    0.000,3.000,3.000;  !- X,Y,Z ==> Vertex 4 {m}

  BuildingSurface:Detailed,
    ZONE SURFACE EAST,       !- Name
    WALL,                    !- Surface Type
    TESTSURFACE,             !- Construction Name
    ZONE ONE,                !- Zone Name
    Surface,                 !- Outside Boundary Condition
    ZONE SURFACE EAST,       !- Outside Boundary Condition Object
    NoSun,                   !- Sun Exposure
    NoWind,                  !- Wind Exposure
    0.0000000,               !- View Factor to Ground
    4,                       !- Number of Vertices
    3.000,0.000,3.000,  !- X,Y,Z ==> Vertex 1 {m}
    3.000,0.000,0.000,  !- X,Y,Z ==> Vertex 2 {m}
    3.000,3.000,0.000,  !- X,Y,Z ==> Vertex 3 {m}
    3.000,3.000,3.000;  !- X,Y,Z ==> Vertex 4 {m}

  BuildingSurface:Detailed,
    ZONE SURFACE CEILING,    !- Name
    CEILING,                 !- Surface Type
    TESTSURFACE,             !- Construction Name
    ZONE ONE,                !- Zone Name
    Surface,                 !- Outside Boundary Condition
    ZONE SURFACE CEILING,    !- Outside Boundary Condition Object
    NoSun,                   !- Sun Exposure
    NoWind,                  !- Wind Exposure
    0.0000000E+00,           !- View Factor to Ground
    4,                       !- Number of Vertices
    0.000,3.000,3.001,  !- X,Y,Z ==> Vertex 1 {m}
    0.000,0.000,3.001,  !- X,Y,Z ==> Vertex 2 {m}
    3.000,0.000,3.001,  !- X,Y,Z ==> Vertex 3 {m}
    3.000,3.000,3.001;  !- X,Y,Z ==> Vertex 4 {m}

  BuildingSurface:Detailed,
    ZONE SURFACE FLOOR,      !- Name
    FLOOR,                   !- Surface Type
    TESTSURFACE,             !- Construction Name
    ZONE ONE,                !- Zone Name
    Surface,                 !- Outside Boundary Condition
    ZONE SURFACE FLOOR,      !- Outside Boundary Condition Object
    NoSun,                   !- Sun Exposure
    NoWind,                  !- Wind Exposure
    0.0000000E+00,           !- View Factor to Ground
    4,                       !- Number of Vertices
    0.000,0.000,0.000,  !- X,Y,Z ==> Vertex 1 {m}
    0.000,3.000,0.000,  !- X,Y,Z ==> Vertex 2 {m}
    3.000,3.000,0.000,  !- X,Y,Z ==> Vertex 3 {m}
    3.000,0.000,0.000;  !- X,Y,Z ==> Vertex 4 {m}

  ZoneControl:Thermostat,
    Zone 1 Thermostat,       !- Name
    ZONE ONE,                !- Zone or ZoneList Name
    Zone Control Type Sched, !- Control Type Schedule Name
    ThermostatSetpoint:SingleHeatingOrCooling,  !- Control 1 Object Type
    HeatCool Setpoints Set 1;!- Control 1 Name

  ThermostatSetpoint:SingleHeatingOrCooling,
    HeatCool Setpoints Set 1,!- Name
    HeatCool Setpoints;      !- Setpoint Temperature Schedule Name

  ScheduleTypeLimits,
    Temperature,             !- Name
    -60,                     !- Lower Limit Value
    200,                     !- Upper Limit Value
    CONTINUOUS,              !- Numeric Type
    Temperature;             !- Unit Type

          ! Next Arguments represent each hour of day

  Schedule:Day:Hourly,
    Zone HeatCool Setpoint All Days,  !- Name
    Temperature,             !- Schedule Type Limits Name
    20.,                     !- Hour 1
    20.,                     !- Hour 2
    20.,                     !- Hour 3
    20.,                     !- Hour 4
    20.,                     !- Hour 5
    20.,                     !- Hour 6
    20.,                     !- Hour 7
    20.,                     !- Hour 8
    20.,                     !- Hour 9
    20.,                     !- Hour 10
    20.,                     !- Hour 11
    20.,                     !- Hour 12
    20.,                     !- Hour 13
    20.,                     !- Hour 14
    20.,                     !- Hour 15
    20.,                     !- Hour 16
    20.,                     !- Hour 17
    20.,                     !- Hour 18
    20.,                     !- Hour 19
    20.,                     !- Hour 20
    20.,                     !- Hour 21
    20.,                     !- Hour 22
    20.,                     !- Hour 23
    20.;                     !- Hour 24

          ! Next arguments are names (DaySchedules) for the days

  Schedule:Week:Daily,
    Zone HeatCool Setpoint All Weeks,  !- Name
    Zone HeatCool Setpoint All Days,  !- Sunday Schedule:Day Name
    Zone HeatCool Setpoint All Days,  !- Monday Schedule:Day Name
    Zone HeatCool Setpoint All Days,  !- Tuesday Schedule:Day Name
    Zone HeatCool Setpoint All Days,  !- Wednesday Schedule:Day Name
    Zone HeatCool Setpoint All Days,  !- Thursday Schedule:Day Name
    Zone HeatCool Setpoint All Days,  !- Friday Schedule:Day Name
    Zone HeatCool Setpoint All Days,  !- Saturday Schedule:Day Name
    Zone HeatCool Setpoint All Days,  !- Holiday Schedule:Day Name
    Zone HeatCool Setpoint All Days,  !- SummerDesignDay Schedule:Day Name
    Zone HeatCool Setpoint All Days,  !- WinterDesignDay Schedule:Day Name
    Zone HeatCool Setpoint All Days,  !- CustomDay1 Schedule:Day Name
    Zone HeatCool Setpoint All Days;  !- CustomDay2 Schedule:Day Name

          ! remaining arguments are grouped [Name (WeekSchedules),startmonth,startday,endmonth,endday]
          ! 18 periods allowed

  Schedule:Year,
    HeatCool Setpoints,      !- Name
    Temperature,             !- Schedule Type Limits Name
    Zone HeatCool Setpoint All Weeks,  !- Schedule:Week Name 1
    1,                       !- Start Month 1
    1,                       !- Start Day 1
    12,                      !- End Month 1
    31;                      !- End Day 1

  ScheduleTypeLimits,
    Control Type,            !- Name
    0,                       !- Lower Limit Value
    4,                       !- Upper Limit Value
    DISCRETE;                !- Numeric Type

          ! Next Arguments represent each hour of day

  Schedule:Day:Hourly,
    Control Type All Days-HeatCool,  !- Name
    Control Type,            !- Schedule Type Limits Name
    3,                       !- Hour 1
    3,                       !- Hour 2
    3,                       !- Hour 3
    3,                       !- Hour 4
    3,                       !- Hour 5
    3,                       !- Hour 6
    3,                       !- Hour 7
    3,                       !- Hour 8
    3,                       !- Hour 9
    3,                       !- Hour 10
    3,                       !- Hour 11
    3,                       !- Hour 12
    3,                       !- Hour 13
    3,                       !- Hour 14
    3,                       !- Hour 15
    3,                       !- Hour 16
    3,                       !- Hour 17
    3,                       !- Hour 18
    3,                       !- Hour 19
    3,                       !- Hour 20
    3,                       !- Hour 21
    3,                       !- Hour 22
    3,                       !- Hour 23
    3;                       !- Hour 24

          ! Next arguments are names (DaySchedules) for the days

  Schedule:Week:Daily,
    Control Type All Weeks-HeatCool,  !- Name
    Control Type All Days-HeatCool,  !- Sunday Schedule:Day Name
    Control Type All Days-HeatCool,  !- Monday Schedule:Day Name
    Control Type All Days-HeatCool,  !- Tuesday Schedule:Day Name
    Control Type All Days-HeatCool,  !- Wednesday Schedule:Day Name
    Control Type All Days-HeatCool,  !- Thursday Schedule:Day Name
    Control Type All Days-HeatCool,  !- Friday Schedule:Day Name
    Control Type All Days-HeatCool,  !- Saturday Schedule:Day Name
    Control Type All Days-HeatCool,  !- Holiday Schedule:Day Name
    Control Type All Days-HeatCool,  !- SummerDesignDay Schedule:Day Name
    Control Type All Days-HeatCool,  !- WinterDesignDay Schedule:Day Name
    Control Type All Days-HeatCool,  !- CustomDay1 Schedule:Day Name
    Control Type All Days-HeatCool;  !- CustomDay2 Schedule:Day Name

          ! remaining arguments are grouped [Name (WeekSchedules),startmonth,startday,endmonth,endday]
          ! 18 periods allowed

  Schedule:Year,
    Zone Control Type Sched, !- Name
    Control Type,            !- Schedule Type Limits Name
    Control Type All Weeks-HeatCool,  !- Schedule:Week Name 1
    1,                       !- Start Month 1
    1,                       !- Start Day 1
    12,                      !- End Month 1
    31;                      !- End Day 1

    !*****************ZONE EQUIPMENT SPECIFICATION*********************
    !Zone Heating and Cooling Equipment are attached to zones by the following statements:

  ZoneHVAC:EquipmentConnections,
    ZONE ONE,                !- Zone Name
    Zone1Equipment,          !- Zone Conditioning Equipment List Name
    Zone1Inlets,             !- Zone Air Inlet Node or NodeList Name
    ,                        !- Zone Air Exhaust Node or NodeList Name
    NODE_2,                  !- Zone Air Node Name
    NODE_3;                  !- Zone Return Air Node Name

        !List equipment in simulation order

  ZoneHVAC:EquipmentList,
    Zone1Equipment,          !- Name
    ZoneHVAC:IdealLoadsAirSystem,  !- Zone Equipment 1 Object Type
    Zone1Air,                !- Zone Equipment 1 Name
    1,                       !- Zone Equipment 1 Cooling Sequence
    1;                       !- Zone Equipment 1 Heating or No-Load Sequence

  ZoneHVAC:IdealLoadsAirSystem,
    Zone1Air,                !- Name
    ,                        !- Availability Schedule Name
    NODE_1,                  !- Zone Supply Air Node Name
    ,                        !- Zone Exhaust Air Node Name
    50,                      !- Maximum Heating Supply Air Temperature {C}
    13,                      !- Minimum Cooling Supply Air Temperature {C}
    0.015,                   !- Maximum Heating Supply Air Humidity Ratio {kgWater/kgDryAir}
    0.009,                   !- Minimum Cooling Supply Air Humidity Ratio {kgWater/kgDryAir}
    ,                        !- Heating Limit
    ,                        !- Maximum Heating Air Flow Rate {m3/s}
    ,                        !- Maximum Sensible Heating Capacity {W}
    ,                        !- Cooling Limit
    ,                        !- Maximum Cooling Air Flow Rate {m3/s}
    ,                        !- Maximum Total Cooling Capacity {W}
    ,                        !- Heating Availability Schedule Name
    ,                        !- Cooling Availability Schedule Name
    ConstantSupplyHumidityRatio,  !- Dehumidification Control Type
    ,                        !- Cooling Sensible Heat Ratio {dimensionless}
    ConstantSupplyHumidityRatio,  !- Humidification Control Type
    ,                        !- Design Specification Outdoor Air Object Name
    ,                        !- Outdoor Air Inlet Node Name
    ,                        !- Demand Controlled Ventilation Type
    ,                        !- Outdoor Air Economizer Type
    ,                        !- Heat Recovery Type
    ,                        !- Sensible Heat Recovery Effectiveness {dimensionless}
    ;                        !- Latent Heat Recovery Effectiveness {dimensionless}

  NodeList,
    Zone1Inlets,             !- Name
    NODE_1;                  !- Node 1 Name

  Output:Variable,*,Site Outdoor Air Drybulb Temperature,timestep;

  Output:Variable,*,Zone Mean Air Temperature,timestep;

  Output:Variable,*,Site Diffuse Solar Radiation Rate per Area,timestep;

  Output:Variable,*,Site Direct Solar Radiation Rate per Area,timestep;

  Output:Variable,*,Site Ground Reflected Solar Radiation Rate per Area,timestep;

  Output:Variable,*,Surface Inside Face Temperature,timestep;

  Output:Variable,*,Surface Outside Face Temperature,timestep;

  Output:Variable,*,Surface Inside Face Convection Heat Transfer Coefficient,timestep;

  Output:Variable,*,Surface Outside Face Convection Heat Transfer Coefficient,timestep;

  Output:Variable,*,Surface Outside Face Incident Solar Radiation Rate per Area,timestep;

  Output:Variable,*,Zone Air System Sensible Heating Energy,timestep;

  Output:Variable,*,Zone Air System Sensible Cooling Energy,timestep;

  Output:Variable,*,Zone Windows Total Transmitted Solar Radiation Rate,timestep;

  Output:Surfaces:Drawing,dxf;

  Output:Surfaces:List,details;

  Output:Constructions,Constructions;

  Output:Meter:MeterFileOnly,DistrictHeating:Facility,monthly;

  Output:Meter:MeterFileOnly,DistrictCooling:Facility,monthly;

  Output:Meter:MeterFileOnly,DistrictHeating:Facility,runperiod;

  Output:Meter:MeterFileOnly,DistrictCooling:Facility,runperiod;

 End Simulation Data;

  OutputControl:Table:Style,
    HTML;                    !- Column Separator

  Output:Table:SummaryReports,
    AllSummary;              !- Report 1 Name

  Output:VariableDictionary,Regular;

