! CTFTestsPart1.idf
! Basic file description: Conduction transfer tests for EnergyPlus
! Run:      3 design days.
! Building: Fictional 10 zone building.  Each zone has a different
!    wall construction, some are just R valued, some are concrete. No windows.
! Internal: None.
! System:   None.
! Plant:    None.
! SolDis=FullExterior, Aniso, Detailed Interior and Exterior Convection

  Output:PreprocessorMessage,
    No Preprocessor Used,    !- Preprocessor Name
    Information,             !- Error Severity
    Illustrative Message,    !- Message Line 1
    No problems for processing;  !- Message Line 2

  Output:SQLite,
    Simple;                  !- Option Type

  Version,8.5;

  Timestep,4;

  Building,
    CTF TEST ZONES,          !- Name
    0.0000000E+00,           !- North Axis {deg}
    Suburbs,                 !- Terrain
    3.9999999E-02,           !- Loads Convergence Tolerance Value
    3.9999999E-02,           !- Temperature Convergence Tolerance Value {deltaC}
    FullExterior,            !- Solar Distribution
    35,                      !- Maximum Number of Warmup Days
    6;                       !- Minimum Number of Warmup Days

  HeatBalanceAlgorithm,ConductionTransferFunction;

  SurfaceConvectionAlgorithm:Inside,TARP;

  SurfaceConvectionAlgorithm:Outside,TARP;

  SimulationControl,
    No,                      !- Do Zone Sizing Calculation
    No,                      !- Do System Sizing Calculation
    No,                      !- Do Plant Sizing Calculation
    Yes,                     !- Run Simulation for Sizing Periods
    No;                      !- Run Simulation for Weather File Run Periods

  RunPeriod,
    ,                        !- Name
    1,                       !- Begin Month
    1,                       !- Begin Day of Month
    12,                      !- End Month
    31,                      !- End Day of Month
    Tuesday,                 !- Day of Week for Start Day
    Yes,                     !- Use Weather File Holidays and Special Days
    Yes,                     !- Use Weather File Daylight Saving Period
    No,                      !- Apply Weekend Holiday Rule
    Yes,                     !- Use Weather File Rain Indicators
    Yes;                     !- Use Weather File Snow Indicators

  Site:Location,
    Denver Stapleton Intl Arpt CO USA WMO=724690,  !- Name
    39.77,                   !- Latitude {deg}
    -104.87,                 !- Longitude {deg}
    -7.00,                   !- Time Zone {hr}
    1611.00;                 !- Elevation {m}

 ! Denver Stapleton Intl Arpt CO USA Annual Heating Design Conditions Wind Speed=2.3m/s Wind Dir=180
 ! Coldest Month=December
 ! Denver Stapleton Intl Arpt CO USA Annual Heating 99.6%, MaxDB=-20°C

  SizingPeriod:DesignDay,
    Denver Stapleton Intl Arpt Ann Htg 99.6% Condns DB,  !- Name
    12,                      !- Month
    21,                      !- Day of Month
    WinterDesignDay,         !- Day Type
    -20,                     !- Maximum Dry-Bulb Temperature {C}
    0.0,                     !- Daily Dry-Bulb Temperature Range {deltaC}
    ,                        !- Dry-Bulb Temperature Range Modifier Type
    ,                        !- Dry-Bulb Temperature Range Modifier Day Schedule Name
    Wetbulb,                 !- Humidity Condition Type
    -20,                     !- Wetbulb or DewPoint at Maximum Dry-Bulb {C}
    ,                        !- Humidity Condition Day Schedule Name
    ,                        !- Humidity Ratio at Maximum Dry-Bulb {kgWater/kgDryAir}
    ,                        !- Enthalpy at Maximum Dry-Bulb {J/kg}
    ,                        !- Daily Wet-Bulb Temperature Range {deltaC}
    83411.,                  !- Barometric Pressure {Pa}
    2.3,                     !- Wind Speed {m/s}
    180,                     !- Wind Direction {deg}
    No,                      !- Rain Indicator
    No,                      !- Snow Indicator
    No,                      !- Daylight Saving Time Indicator
    ASHRAEClearSky,          !- Solar Model Indicator
    ,                        !- Beam Solar Day Schedule Name
    ,                        !- Diffuse Solar Day Schedule Name
    ,                        !- ASHRAE Clear Sky Optical Depth for Beam Irradiance (taub) {dimensionless}
    ,                        !- ASHRAE Clear Sky Optical Depth for Diffuse Irradiance (taud) {dimensionless}
    0.00;                    !- Sky Clearness

 ! Denver Stapleton Intl Arpt Annual Cooling Design Conditions Wind Speed=4m/s Wind Dir=120
 ! Hottest Month=July
 ! Denver Stapleton Intl Arpt CO USA Annual Cooling (DB=>MWB) .4%, MaxDB=34.1°C MWB=15.9°C

  SizingPeriod:DesignDay,
    Denver Stapleton Intl Arpt No Solar Ann Clg .4% Condns DB=>MWB,  !- Name
    7,                       !- Month
    21,                      !- Day of Month
    SummerDesignDay,         !- Day Type
    34.1,                    !- Maximum Dry-Bulb Temperature {C}
    15.2,                    !- Daily Dry-Bulb Temperature Range {deltaC}
    ,                        !- Dry-Bulb Temperature Range Modifier Type
    ,                        !- Dry-Bulb Temperature Range Modifier Day Schedule Name
    Wetbulb,                 !- Humidity Condition Type
    15.9,                    !- Wetbulb or DewPoint at Maximum Dry-Bulb {C}
    ,                        !- Humidity Condition Day Schedule Name
    ,                        !- Humidity Ratio at Maximum Dry-Bulb {kgWater/kgDryAir}
    ,                        !- Enthalpy at Maximum Dry-Bulb {J/kg}
    ,                        !- Daily Wet-Bulb Temperature Range {deltaC}
    83411.,                  !- Barometric Pressure {Pa}
    4,                       !- Wind Speed {m/s}
    120,                     !- Wind Direction {deg}
    No,                      !- Rain Indicator
    No,                      !- Snow Indicator
    No,                      !- Daylight Saving Time Indicator
    ASHRAEClearSky,          !- Solar Model Indicator
    ,                        !- Beam Solar Day Schedule Name
    ,                        !- Diffuse Solar Day Schedule Name
    ,                        !- ASHRAE Clear Sky Optical Depth for Beam Irradiance (taub) {dimensionless}
    ,                        !- ASHRAE Clear Sky Optical Depth for Diffuse Irradiance (taud) {dimensionless}
    0;                       !- Sky Clearness

 ! Denver Stapleton Intl Arpt Annual Cooling Design Conditions Wind Speed=4m/s Wind Dir=120
 ! Hottest Month=July
 ! Denver Stapleton Intl Arpt CO USA Annual Cooling (DB=>MWB) .4%, MaxDB=34.1°C MWB=15.9°C

  SizingPeriod:DesignDay,
    Denver Stapleton Intl Arpt Ann Clg .4% Condns DB=>MWB,  !- Name
    7,                       !- Month
    21,                      !- Day of Month
    SummerDesignDay,         !- Day Type
    34.1,                    !- Maximum Dry-Bulb Temperature {C}
    15.2,                    !- Daily Dry-Bulb Temperature Range {deltaC}
    ,                        !- Dry-Bulb Temperature Range Modifier Type
    ,                        !- Dry-Bulb Temperature Range Modifier Day Schedule Name
    Wetbulb,                 !- Humidity Condition Type
    15.9,                    !- Wetbulb or DewPoint at Maximum Dry-Bulb {C}
    ,                        !- Humidity Condition Day Schedule Name
    ,                        !- Humidity Ratio at Maximum Dry-Bulb {kgWater/kgDryAir}
    ,                        !- Enthalpy at Maximum Dry-Bulb {J/kg}
    ,                        !- Daily Wet-Bulb Temperature Range {deltaC}
    83411.,                  !- Barometric Pressure {Pa}
    4,                       !- Wind Speed {m/s}
    120,                     !- Wind Direction {deg}
    No,                      !- Rain Indicator
    No,                      !- Snow Indicator
    No,                      !- Daylight Saving Time Indicator
    ASHRAEClearSky,          !- Solar Model Indicator
    ,                        !- Beam Solar Day Schedule Name
    ,                        !- Diffuse Solar Day Schedule Name
    ,                        !- ASHRAE Clear Sky Optical Depth for Beam Irradiance (taub) {dimensionless}
    ,                        !- ASHRAE Clear Sky Optical Depth for Diffuse Irradiance (taud) {dimensionless}
    1.00;                    !- Sky Clearness

  Material:NoMass,
    R13LAYER,                !- Name
    Rough,                   !- Roughness
    2.290965,                !- Thermal Resistance {m2-K/W}
    0.9000000,               !- Thermal Absorptance
    0.7500000,               !- Solar Absorptance
    0.7500000;               !- Visible Absorptance

  Material,
    CONCRETE - SAND AND GRAVEL 4 IN,  !- Name
    MediumRough,             !- Roughness
    0.1014984,               !- Thickness {m}
    1.729577,                !- Conductivity {W/m-K}
    2242.585,                !- Density {kg/m3}
    836.8000,                !- Specific Heat {J/kg-K}
    0.9000000,               !- Thermal Absorptance
    0.6000000,               !- Solar Absorptance
    0.6000000;               !- Visible Absorptance

  Material,
    E2 - 1 / 2 IN SLAG OR STONE,  !- Name
    Rough,                   !- Roughness
    1.2710161E-02,           !- Thickness {m}
    1.435549,                !- Conductivity {W/m-K}
    881.0155,                !- Density {kg/m3}
    1673.600,                !- Specific Heat {J/kg-K}
    0.9000000,               !- Thermal Absorptance
    0.5500000,               !- Solar Absorptance
    0.5500000;               !- Visible Absorptance

  Material,
    E3 - 3 / 8 IN FELT AND MEMBRANE,  !- Name
    Rough,                   !- Roughness
    9.5402403E-03,           !- Thickness {m}
    0.1902535,               !- Conductivity {W/m-K}
    1121.292,                !- Density {kg/m3}
    1673.600,                !- Specific Heat {J/kg-K}
    0.9000000,               !- Thermal Absorptance
    0.7500000,               !- Solar Absorptance
    0.7500000;               !- Visible Absorptance

  Material,
    B6 - 2 IN DENSE INSULATION,  !- Name
    VeryRough,               !- Roughness
    5.0901599E-02,           !- Thickness {m}
    4.3239430E-02,           !- Conductivity {W/m-K}
    91.30524,                !- Density {kg/m3}
    836.8000,                !- Specific Heat {J/kg-K}
    0.9000000,               !- Thermal Absorptance
    0.5000000,               !- Solar Absorptance
    0.5000000;               !- Visible Absorptance

  Material,
    C12 - 2 IN HW CONCRETE,  !- Name
    MediumRough,             !- Roughness
    5.0901599E-02,           !- Thickness {m}
    1.729577,                !- Conductivity {W/m-K}
    2242.585,                !- Density {kg/m3}
    836.8000,                !- Specific Heat {J/kg-K}
    0.9000000,               !- Thermal Absorptance
    0.6500000,               !- Solar Absorptance
    0.6500000;               !- Visible Absorptance

  Material,
    A1 - 1 IN STUCCO,        !- Name
    Smooth,                  !- Roughness
    2.5389841E-02,           !- Thickness {m}
    0.6918309,               !- Conductivity {W/m-K}
    1858.142,                !- Density {kg/m3}
    836.8000,                !- Specific Heat {J/kg-K}
    0.9000000,               !- Thermal Absorptance
    0.9200000,               !- Solar Absorptance
    0.9200000;               !- Visible Absorptance

  Material,
    E1 - 3 / 4 IN PLASTER OR GYP BOARD,  !- Name
    Smooth,                  !- Roughness
    1.9050000E-02,           !- Thickness {m}
    0.7264224,               !- Conductivity {W/m-K}
    1601.846,                !- Density {kg/m3}
    836.8000,                !- Specific Heat {J/kg-K}
    0.9000000,               !- Thermal Absorptance
    0.9200000,               !- Solar Absorptance
    0.9200000;               !- Visible Absorptance

  Material,
    C11 - 12 IN HW CONCRETE, !- Name
    MediumRough,             !- Roughness
    0.3048000,               !- Thickness {m}
    1.729577,                !- Conductivity {W/m-K}
    2242.585,                !- Density {kg/m3}
    836.8000,                !- Specific Heat {J/kg-K}
    0.9000000,               !- Thermal Absorptance
    0.6500000,               !- Solar Absorptance
    0.6500000;               !- Visible Absorptance

  Material,
    C5 - 4 IN HW CONCRETE,   !- Name
    MediumRough,             !- Roughness
    0.1014984,               !- Thickness {m}
    1.729577,                !- Conductivity {W/m-K}
    2242.585,                !- Density {kg/m3}
    836.8000,                !- Specific Heat {J/kg-K}
    0.9000000,               !- Thermal Absorptance
    0.6500000,               !- Solar Absorptance
    0.6500000;               !- Visible Absorptance

  Material,
    SLOWHWCONC,              !- Name
    Rough,                   !- Roughness
    0.3048000,               !- Thickness {m}
    0.1729577,               !- Conductivity {W/m-K}
    2242.585,                !- Density {kg/m3}
    836.8000,                !- Specific Heat {J/kg-K}
    0.9000000,               !- Thermal Absorptance
    0.6500000,               !- Solar Absorptance
    0.6500000;               !- Visible Absorptance

  Construction,
    R13WALL,                 !- Name
    R13LAYER;                !- Outside Layer

  Construction,
    SLAB FLOOR,              !- Name
    CONCRETE - SAND AND GRAVEL 4 IN;  !- Outside Layer

  Construction,
    ROOF31,                  !- Name
    E2 - 1 / 2 IN SLAG OR STONE,  !- Outside Layer
    E3 - 3 / 8 IN FELT AND MEMBRANE,  !- Layer 2
    B6 - 2 IN DENSE INSULATION,  !- Layer 3
    C12 - 2 IN HW CONCRETE;  !- Layer 4

  Construction,
    R26WALL,                 !- Name
    R13LAYER,                !- Outside Layer
    R13LAYER;                !- Layer 2

  Construction,
    MIXEDWALL,               !- Name
    A1 - 1 IN STUCCO,        !- Outside Layer
    R13LAYER,                !- Layer 2
    R13LAYER,                !- Layer 3
    E1 - 3 / 4 IN PLASTER OR GYP BOARD;  !- Layer 4

  Construction,
    MIXEDWALL2,              !- Name
    A1 - 1 IN STUCCO,        !- Outside Layer
    R13LAYER,                !- Layer 2
    R13LAYER;                !- Layer 3

  Construction,
    MIXEDWALL3,              !- Name
    R13LAYER,                !- Outside Layer
    R13LAYER,                !- Layer 2
    R13LAYER,                !- Layer 3
    R13LAYER,                !- Layer 4
    E1 - 3 / 4 IN PLASTER OR GYP BOARD;  !- Layer 5

  Construction,
    12 INCHHWCONC,           !- Name
    A1 - 1 IN STUCCO,        !- Outside Layer
    C11 - 12 IN HW CONCRETE, !- Layer 2
    E1 - 3 / 4 IN PLASTER OR GYP BOARD;  !- Layer 3

  Construction,
    12 INCHHWCONCREV,        !- Name
    E1 - 3 / 4 IN PLASTER OR GYP BOARD,  !- Outside Layer
    C11 - 12 IN HW CONCRETE, !- Layer 2
    A1 - 1 IN STUCCO;        !- Layer 3

  Construction,
    FOOTOFHWCONC,            !- Name
    C11 - 12 IN HW CONCRETE; !- Outside Layer

  Construction,
    10 LAYERWALL,            !- Name
    A1 - 1 IN STUCCO,        !- Outside Layer
    E1 - 3 / 4 IN PLASTER OR GYP BOARD,  !- Layer 2
    A1 - 1 IN STUCCO,        !- Layer 3
    E1 - 3 / 4 IN PLASTER OR GYP BOARD,  !- Layer 4
    A1 - 1 IN STUCCO,        !- Layer 5
    C5 - 4 IN HW CONCRETE,   !- Layer 6
    E1 - 3 / 4 IN PLASTER OR GYP BOARD,  !- Layer 7
    A1 - 1 IN STUCCO,        !- Layer 8
    E1 - 3 / 4 IN PLASTER OR GYP BOARD,  !- Layer 9
    E1 - 3 / 4 IN PLASTER OR GYP BOARD;  !- Layer 10

  Construction,
    SLOWHWCONCWALL,          !- Name
    SLOWHWCONC;              !- Outside Layer

  Site:GroundTemperature:BuildingSurface,18.89,18.92,19.02,19.12,19.21,19.23,19.07,19.32,19.09,19.21,19.13,18.96;

  Zone,
    R13WALL WALLS,           !- Name
    0.0000000E+00,           !- Direction of Relative North {deg}
    0.0000000E+00,           !- X Origin {m}
    0.0000000E+00,           !- Y Origin {m}
    0.0000000E+00,           !- Z Origin {m}
    1,                       !- Type
    1,                       !- Multiplier
    autocalculate,           !- Ceiling Height {m}
    autocalculate;           !- Volume {m3}

  Zone,
    R26WALL WALLS,           !- Name
    0.0000000E+00,           !- Direction of Relative North {deg}
    0.0000000E+00,           !- X Origin {m}
    0.0000000E+00,           !- Y Origin {m}
    0.0000000E+00,           !- Z Origin {m}
    1,                       !- Type
    1,                       !- Multiplier
    autocalculate,           !- Ceiling Height {m}
    autocalculate;           !- Volume {m3}

  Zone,
    MIXEDWALL WALLS,         !- Name
    0.0000000E+00,           !- Direction of Relative North {deg}
    0.0000000E+00,           !- X Origin {m}
    0.0000000E+00,           !- Y Origin {m}
    0.0000000E+00,           !- Z Origin {m}
    1,                       !- Type
    1,                       !- Multiplier
    autocalculate,           !- Ceiling Height {m}
    autocalculate;           !- Volume {m3}

  Zone,
    MIXEDWALL2 WALLS,        !- Name
    0.0000000E+00,           !- Direction of Relative North {deg}
    0.0000000E+00,           !- X Origin {m}
    0.0000000E+00,           !- Y Origin {m}
    0.0000000E+00,           !- Z Origin {m}
    1,                       !- Type
    1,                       !- Multiplier
    autocalculate,           !- Ceiling Height {m}
    autocalculate;           !- Volume {m3}

  Zone,
    MIXEDWALL3 WALLS,        !- Name
    0.0000000E+00,           !- Direction of Relative North {deg}
    0.0000000E+00,           !- X Origin {m}
    0.0000000E+00,           !- Y Origin {m}
    0.0000000E+00,           !- Z Origin {m}
    1,                       !- Type
    1,                       !- Multiplier
    autocalculate,           !- Ceiling Height {m}
    autocalculate;           !- Volume {m3}

  Zone,
    12INCHHWCONC WALLS,      !- Name
    0.0000000E+00,           !- Direction of Relative North {deg}
    0.0000000E+00,           !- X Origin {m}
    0.0000000E+00,           !- Y Origin {m}
    0.0000000E+00,           !- Z Origin {m}
    1,                       !- Type
    1,                       !- Multiplier
    autocalculate,           !- Ceiling Height {m}
    autocalculate;           !- Volume {m3}

  Zone,
    12INCHHWCONCREV WALLS,   !- Name
    0.0000000E+00,           !- Direction of Relative North {deg}
    0.0000000E+00,           !- X Origin {m}
    0.0000000E+00,           !- Y Origin {m}
    0.0000000E+00,           !- Z Origin {m}
    1,                       !- Type
    1,                       !- Multiplier
    autocalculate,           !- Ceiling Height {m}
    autocalculate;           !- Volume {m3}

  Zone,
    FOOTOFHWCONC WALLS,      !- Name
    0.0000000E+00,           !- Direction of Relative North {deg}
    0.0000000E+00,           !- X Origin {m}
    0.0000000E+00,           !- Y Origin {m}
    0.0000000E+00,           !- Z Origin {m}
    1,                       !- Type
    1,                       !- Multiplier
    autocalculate,           !- Ceiling Height {m}
    autocalculate;           !- Volume {m3}

  Zone,
    10LAYERWALL WALLS,       !- Name
    0.0000000E+00,           !- Direction of Relative North {deg}
    0.0000000E+00,           !- X Origin {m}
    0.0000000E+00,           !- Y Origin {m}
    0.0000000E+00,           !- Z Origin {m}
    1,                       !- Type
    1,                       !- Multiplier
    autocalculate,           !- Ceiling Height {m}
    autocalculate;           !- Volume {m3}

  Zone,
    SLOWHWCONCWALL WALLS,    !- Name
    0.0000000E+00,           !- Direction of Relative North {deg}
    0.0000000E+00,           !- X Origin {m}
    0.0000000E+00,           !- Y Origin {m}
    0.0000000E+00,           !- Z Origin {m}
    1,                       !- Type
    1,                       !- Multiplier
    autocalculate,           !- Ceiling Height {m}
    autocalculate;           !- Volume {m3}

  ScheduleTypeLimits,
    Fraction,                !- Name
    0.0,                     !- Lower Limit Value
    1.0,                     !- Upper Limit Value
    CONTINUOUS;              !- Numeric Type

  GlobalGeometryRules,
    UpperLeftCorner,         !- Starting Vertex Position
    CounterClockWise,        !- Vertex Entry Direction
    World;                   !- Coordinate System

  BuildingSurface:Detailed,
    Zn001:Wall001,           !- Name
    Wall,                    !- Surface Type
    R13WALL,                 !- Construction Name
    R13WALL WALLS,           !- Zone Name
    Outdoors,                !- Outside Boundary Condition
    ,                        !- Outside Boundary Condition Object
    SunExposed,              !- Sun Exposure
    WindExposed,             !- Wind Exposure
    0.5000000,               !- View Factor to Ground
    autocalculate,           !- Number of Vertices
    0.0000000E+00,0.0000000E+00,4.572000,  !- X,Y,Z ==> Vertex 1 {m}
    0.0000000E+00,0.0000000E+00,0.0000000E+00,  !- X,Y,Z ==> Vertex 2 {m}
    15.24000,0.0000000E+00,0.0000000E+00,  !- X,Y,Z ==> Vertex 3 {m}
    15.24000,0.0000000E+00,4.572000;  !- X,Y,Z ==> Vertex 4 {m}

  BuildingSurface:Detailed,
    Zn001:Wall002,           !- Name
    Wall,                    !- Surface Type
    R13WALL,                 !- Construction Name
    R13WALL WALLS,           !- Zone Name
    Outdoors,                !- Outside Boundary Condition
    ,                        !- Outside Boundary Condition Object
    SunExposed,              !- Sun Exposure
    WindExposed,             !- Wind Exposure
    0.5000000,               !- View Factor to Ground
    autocalculate,           !- Number of Vertices
    15.24000,0.0000000E+00,4.572000,  !- X,Y,Z ==> Vertex 1 {m}
    15.24000,0.0000000E+00,0.0000000E+00,  !- X,Y,Z ==> Vertex 2 {m}
    15.24000,15.24000,0.0000000E+00,  !- X,Y,Z ==> Vertex 3 {m}
    15.24000,15.24000,4.572000;  !- X,Y,Z ==> Vertex 4 {m}

  BuildingSurface:Detailed,
    Zn001:Wall003,           !- Name
    Wall,                    !- Surface Type
    R13WALL,                 !- Construction Name
    R13WALL WALLS,           !- Zone Name
    Outdoors,                !- Outside Boundary Condition
    ,                        !- Outside Boundary Condition Object
    SunExposed,              !- Sun Exposure
    WindExposed,             !- Wind Exposure
    0.5000000,               !- View Factor to Ground
    autocalculate,           !- Number of Vertices
    15.24000,15.24000,4.572000,  !- X,Y,Z ==> Vertex 1 {m}
    15.24000,15.24000,0.0000000E+00,  !- X,Y,Z ==> Vertex 2 {m}
    0.0000000E+00,15.24000,0.0000000E+00,  !- X,Y,Z ==> Vertex 3 {m}
    0.0000000E+00,15.24000,4.572000;  !- X,Y,Z ==> Vertex 4 {m}

  BuildingSurface:Detailed,
    Zn001:Wall004,           !- Name
    Wall,                    !- Surface Type
    R13WALL,                 !- Construction Name
    R13WALL WALLS,           !- Zone Name
    Outdoors,                !- Outside Boundary Condition
    ,                        !- Outside Boundary Condition Object
    SunExposed,              !- Sun Exposure
    WindExposed,             !- Wind Exposure
    0.5000000,               !- View Factor to Ground
    autocalculate,           !- Number of Vertices
    0.0000000E+00,15.24000,4.572000,  !- X,Y,Z ==> Vertex 1 {m}
    0.0000000E+00,15.24000,0.0000000E+00,  !- X,Y,Z ==> Vertex 2 {m}
    0.0000000E+00,0.0000000E+00,0.0000000E+00,  !- X,Y,Z ==> Vertex 3 {m}
    0.0000000E+00,0.0000000E+00,4.572000;  !- X,Y,Z ==> Vertex 4 {m}

  BuildingSurface:Detailed,
    Zn001:Flr001,            !- Name
    Floor,                   !- Surface Type
    SLAB FLOOR,              !- Construction Name
    R13WALL WALLS,           !- Zone Name
    Ground,                  !- Outside Boundary Condition
    ,                        !- Outside Boundary Condition Object
    NoSun,                   !- Sun Exposure
    NoWind,                  !- Wind Exposure
    1.000000,                !- View Factor to Ground
    autocalculate,           !- Number of Vertices
    0.0000000E+00,0.0000000E+00,0.0000000E+00,  !- X,Y,Z ==> Vertex 1 {m}
    0.0000000E+00,4.572000,0.0000000E+00,  !- X,Y,Z ==> Vertex 2 {m}
    4.572000,4.572000,0.0000000E+00,  !- X,Y,Z ==> Vertex 3 {m}
    4.572000,0.0000000E+00,0.0000000E+00;  !- X,Y,Z ==> Vertex 4 {m}

  BuildingSurface:Detailed,
    Zn001:Roof001,           !- Name
    Roof,                    !- Surface Type
    ROOF31,                  !- Construction Name
    R13WALL WALLS,           !- Zone Name
    Outdoors,                !- Outside Boundary Condition
    ,                        !- Outside Boundary Condition Object
    SunExposed,              !- Sun Exposure
    WindExposed,             !- Wind Exposure
    0.0000000E+00,           !- View Factor to Ground
    autocalculate,           !- Number of Vertices
    0.0000000E+00,4.572000,4.572000,  !- X,Y,Z ==> Vertex 1 {m}
    0.0000000E+00,0.0000000E+00,4.572000,  !- X,Y,Z ==> Vertex 2 {m}
    4.572000,0.0000000E+00,4.572000,  !- X,Y,Z ==> Vertex 3 {m}
    4.572000,4.572000,4.572000;  !- X,Y,Z ==> Vertex 4 {m}

  BuildingSurface:Detailed,
    Zn002:Wall001,           !- Name
    Wall,                    !- Surface Type
    R26WALL,                 !- Construction Name
    R26WALL WALLS,           !- Zone Name
    Outdoors,                !- Outside Boundary Condition
    ,                        !- Outside Boundary Condition Object
    SunExposed,              !- Sun Exposure
    WindExposed,             !- Wind Exposure
    0.5000000,               !- View Factor to Ground
    autocalculate,           !- Number of Vertices
    0.0000000E+00,0.0000000E+00,4.572000,  !- X,Y,Z ==> Vertex 1 {m}
    0.0000000E+00,0.0000000E+00,0.0000000E+00,  !- X,Y,Z ==> Vertex 2 {m}
    15.24000,0.0000000E+00,0.0000000E+00,  !- X,Y,Z ==> Vertex 3 {m}
    15.24000,0.0000000E+00,4.572000;  !- X,Y,Z ==> Vertex 4 {m}

  BuildingSurface:Detailed,
    Zn002:Wall002,           !- Name
    Wall,                    !- Surface Type
    R26WALL,                 !- Construction Name
    R26WALL WALLS,           !- Zone Name
    Outdoors,                !- Outside Boundary Condition
    ,                        !- Outside Boundary Condition Object
    SunExposed,              !- Sun Exposure
    WindExposed,             !- Wind Exposure
    0.5000000,               !- View Factor to Ground
    autocalculate,           !- Number of Vertices
    15.24000,0.0000000E+00,4.572000,  !- X,Y,Z ==> Vertex 1 {m}
    15.24000,0.0000000E+00,0.0000000E+00,  !- X,Y,Z ==> Vertex 2 {m}
    15.24000,15.24000,0.0000000E+00,  !- X,Y,Z ==> Vertex 3 {m}
    15.24000,15.24000,4.572000;  !- X,Y,Z ==> Vertex 4 {m}

  BuildingSurface:Detailed,
    Zn002:Wall003,           !- Name
    Wall,                    !- Surface Type
    R26WALL,                 !- Construction Name
    R26WALL WALLS,           !- Zone Name
    Outdoors,                !- Outside Boundary Condition
    ,                        !- Outside Boundary Condition Object
    SunExposed,              !- Sun Exposure
    WindExposed,             !- Wind Exposure
    0.5000000,               !- View Factor to Ground
    autocalculate,           !- Number of Vertices
    15.24000,15.24000,4.572000,  !- X,Y,Z ==> Vertex 1 {m}
    15.24000,15.24000,0.0000000E+00,  !- X,Y,Z ==> Vertex 2 {m}
    0.0000000E+00,15.24000,0.0000000E+00,  !- X,Y,Z ==> Vertex 3 {m}
    0.0000000E+00,15.24000,4.572000;  !- X,Y,Z ==> Vertex 4 {m}

  BuildingSurface:Detailed,
    Zn002:Wall004,           !- Name
    Wall,                    !- Surface Type
    R26WALL,                 !- Construction Name
    R26WALL WALLS,           !- Zone Name
    Outdoors,                !- Outside Boundary Condition
    ,                        !- Outside Boundary Condition Object
    SunExposed,              !- Sun Exposure
    WindExposed,             !- Wind Exposure
    0.5000000,               !- View Factor to Ground
    autocalculate,           !- Number of Vertices
    0.0000000E+00,15.24000,4.572000,  !- X,Y,Z ==> Vertex 1 {m}
    0.0000000E+00,15.24000,0.0000000E+00,  !- X,Y,Z ==> Vertex 2 {m}
    0.0000000E+00,0.0000000E+00,0.0000000E+00,  !- X,Y,Z ==> Vertex 3 {m}
    0.0000000E+00,0.0000000E+00,4.572000;  !- X,Y,Z ==> Vertex 4 {m}

  BuildingSurface:Detailed,
    Zn002:Flr001,            !- Name
    Floor,                   !- Surface Type
    SLAB FLOOR,              !- Construction Name
    R26WALL WALLS,           !- Zone Name
    Ground,                  !- Outside Boundary Condition
    ,                        !- Outside Boundary Condition Object
    NoSun,                   !- Sun Exposure
    NoWind,                  !- Wind Exposure
    1.000000,                !- View Factor to Ground
    autocalculate,           !- Number of Vertices
    0.0000000E+00,0.0000000E+00,0.0000000E+00,  !- X,Y,Z ==> Vertex 1 {m}
    0.0000000E+00,4.572000,0.0000000E+00,  !- X,Y,Z ==> Vertex 2 {m}
    4.572000,4.572000,0.0000000E+00,  !- X,Y,Z ==> Vertex 3 {m}
    4.572000,0.0000000E+00,0.0000000E+00;  !- X,Y,Z ==> Vertex 4 {m}

  BuildingSurface:Detailed,
    Zn002:Roof001,           !- Name
    Roof,                    !- Surface Type
    ROOF31,                  !- Construction Name
    R26WALL WALLS,           !- Zone Name
    Outdoors,                !- Outside Boundary Condition
    ,                        !- Outside Boundary Condition Object
    SunExposed,              !- Sun Exposure
    WindExposed,             !- Wind Exposure
    0.0000000E+00,           !- View Factor to Ground
    autocalculate,           !- Number of Vertices
    0.0000000E+00,4.572000,4.572000,  !- X,Y,Z ==> Vertex 1 {m}
    0.0000000E+00,0.0000000E+00,4.572000,  !- X,Y,Z ==> Vertex 2 {m}
    4.572000,0.0000000E+00,4.572000,  !- X,Y,Z ==> Vertex 3 {m}
    4.572000,4.572000,4.572000;  !- X,Y,Z ==> Vertex 4 {m}

  BuildingSurface:Detailed,
    Zn003:Wall001,           !- Name
    Wall,                    !- Surface Type
    MIXEDWALL,               !- Construction Name
    MIXEDWALL WALLS,         !- Zone Name
    Outdoors,                !- Outside Boundary Condition