!-Generator IDFEditor 1.34
!-Option OriginalOrderTop UseSpecialFormat
!-NOTE: All comments with '!-' are ignored by the IDFEditor and are generated automatically.
!-      Use '!' comments if they need to be retained when using the IDFEditor.
! _FuelCellTest200.idf
!
! Run:      1 day long weather run in Chicago, Illinois, USA
!
! Building: NO BUILDING . (this is a test file for Micro CHP Generator)
!           There is a thermal zone called garage
!           with considerable infiltration
!           that receives skin losses.
!
! Generator is controlled: Track electric use profile. (simple assumed profiles)
!
! System:   none, free floating garage
! Plant:    Plant loop connected to heat recovery portion of generator.
!           water temperatures and flow rates controlled using Pump schedules and water mains temperature
!
! File developed for Comparative Testing, Fuel Cell test case 200.

  SurfaceConvectionAlgorithm:Inside,TARP;

  SurfaceConvectionAlgorithm:Outside,DOE-2;

  Version,8.5;

  Building,
    Test Harness for MicroCogen,  !- Name
    0,                       !- North Axis {deg}
    Suburbs,                 !- Terrain
    0.001,                   !- Loads Convergence Tolerance Value
    0.0050000,               !- Temperature Convergence Tolerance Value {deltaC}
    FullInteriorAndExterior, !- Solar Distribution
    25,                      !- Maximum Number of Warmup Days
    6;                       !- Minimum Number of Warmup Days

  RunPeriod,
    ,                        !- Name
    1,                       !- Begin Month
    9,                       !- Begin Day of Month
    1,                       !- End Month
    9,                       !- End Day of Month
    SUNDAY,                  !- Day of Week for Start Day
    NO,                      !- Use Weather File Holidays and Special Days
    NO,                      !- Use Weather File Daylight Saving Period
    NO,                      !- Apply Weekend Holiday Rule
    NO,                      !- Use Weather File Rain Indicators
    NO,                      !- Use Weather File Snow Indicators
    1;                       !- Number of Times Runperiod to be Repeated

  Timestep,12;

  Site:Location,
    CHICAGO_OHARE_INTL_IL_USA Design_Conditions,  !- Name
    41.98000,                !- Latitude {deg}
    -87.90000,               !- Longitude {deg}
    -6.000000,               !- Time Zone {hr}
    201.0000;                !- Elevation {m}

  SimulationControl,
    No,                      !- Do Zone Sizing Calculation
    No,                      !- Do System Sizing Calculation
    No,                      !- Do Plant Sizing Calculation
    No,                      !- Run Simulation for Sizing Periods
    Yes;                     !- Run Simulation for Weather File Run Periods

  Output:Diagnostics,
    DisplayAdvancedReportVariables;  !- Key 1

! CHICAGO_IL_USA Annual Heating 99% Design Conditions DB, MaxDB= -17.3°C

  SizingPeriod:DesignDay,
    CHICAGO_IL_USA Annual Heating 99% Design Conditions DB,  !- Name
    1,                       !- Month
    21,                      !- Day of Month
    WinterDesignDay,         !- Day Type
    -17.3,                   !- Maximum Dry-Bulb Temperature {C}
    0.0,                     !- Daily Dry-Bulb Temperature Range {deltaC}
    ,                        !- Dry-Bulb Temperature Range Modifier Type
    ,                        !- Dry-Bulb Temperature Range Modifier Day Schedule Name
    Wetbulb,                 !- Humidity Condition Type
    -17.3,                   !- Wetbulb or DewPoint at Maximum Dry-Bulb {C}
    ,                        !- Humidity Condition Day Schedule Name
    ,                        !- Humidity Ratio at Maximum Dry-Bulb {kgWater/kgDryAir}
    ,                        !- Enthalpy at Maximum Dry-Bulb {J/kg}
    ,                        !- Daily Wet-Bulb Temperature Range {deltaC}
    99063.,                  !- Barometric Pressure {Pa}
    4.9,                     !- Wind Speed {m/s}
    270,                     !- Wind Direction {deg}
    No,                      !- Rain Indicator
    No,                      !- Snow Indicator
    No,                      !- Daylight Saving Time Indicator
    ASHRAEClearSky,          !- Solar Model Indicator
    ,                        !- Beam Solar Day Schedule Name
    ,                        !- Diffuse Solar Day Schedule Name
    ,                        !- ASHRAE Clear Sky Optical Depth for Beam Irradiance (taub) {dimensionless}
    ,                        !- ASHRAE Clear Sky Optical Depth for Diffuse Irradiance (taud) {dimensionless}
    0.0;                     !- Sky Clearness

! CHICAGO_IL_USA Annual Cooling 1% Design Conditions, MaxDB=  31.5°C MCWB=  23.0°C

  SizingPeriod:DesignDay,
    CHICAGO_IL_USA Annual Cooling 1% Design Conditions DB/MCWB,  !- Name
    7,                       !- Month
    21,                      !- Day of Month
    SummerDesignDay,         !- Day Type
    31.5,                    !- Maximum Dry-Bulb Temperature {C}
    10.7,                    !- Daily Dry-Bulb Temperature Range {deltaC}
    ,                        !- Dry-Bulb Temperature Range Modifier Type
    ,                        !- Dry-Bulb Temperature Range Modifier Day Schedule Name
    Wetbulb,                 !- Humidity Condition Type
    23.0,                    !- Wetbulb or DewPoint at Maximum Dry-Bulb {C}
    ,                        !- Humidity Condition Day Schedule Name
    ,                        !- Humidity Ratio at Maximum Dry-Bulb {kgWater/kgDryAir}
    ,                        !- Enthalpy at Maximum Dry-Bulb {J/kg}
    ,                        !- Daily Wet-Bulb Temperature Range {deltaC}
    99063.,                  !- Barometric Pressure {Pa}
    5.3,                     !- Wind Speed {m/s}
    230,                     !- Wind Direction {deg}
    No,                      !- Rain Indicator
    No,                      !- Snow Indicator
    No,                      !- Daylight Saving Time Indicator
    ASHRAEClearSky,          !- Solar Model Indicator
    ,                        !- Beam Solar Day Schedule Name
    ,                        !- Diffuse Solar Day Schedule Name
    ,                        !- ASHRAE Clear Sky Optical Depth for Beam Irradiance (taub) {dimensionless}
    ,                        !- ASHRAE Clear Sky Optical Depth for Diffuse Irradiance (taud) {dimensionless}
    1.0;                     !- Sky Clearness

  Material,
    A1 - 1 IN STUCCO,        !- Name
    Smooth,                  !- Roughness
    2.5389841E-02,           !- Thickness {m}
    0.6918309,               !- Conductivity {W/m-K}
    1858.142,                !- Density {kg/m3}
    836.8000,                !- Specific Heat {J/kg-K}
    0.9000000,               !- Thermal Absorptance
    0.9200000,               !- Solar Absorptance
    0.9200000;               !- Visible Absorptance

! CC Blk 8 in HW Hol.

  Material,
    CB11,                    !- Name
    MediumRough,             !- Roughness
    0.2032000,               !- Thickness {m}
    1.048000,                !- Conductivity {W/m-K}
    1105.000,                !- Density {kg/m3}
    837.0000,                !- Specific Heat {J/kg-K}
    0.9000000,               !- Thermal Absorptance
    0.2000000,               !- Solar Absorptance
    0.2000000;               !- Visible Absorptance

  Construction,
    EXTWALL:GARAGE,          !- Name
    A1 - 1 IN STUCCO,        !- Outside Layer
    CB11;                    !- Layer 2

  Zone,
    GARAGE ZONE,             !- Name
    0.0,                     !- Direction of Relative North {deg}
    0.0,                     !- X Origin {m}
    0.0,                     !- Y Origin {m}
    0.0,                     !- Z Origin {m}
    1,                       !- Type
    1,                       !- Multiplier
    4.0,                     !- Ceiling Height {m}
    50.00;                   !- Volume {m3}

  ZoneControl:Thermostat,
    Garage Zone Thermostat,  !- Name
    GARAGE ZONE,             !- Zone or ZoneList Name
    Zone Control Type Sched, !- Control Type Schedule Name
    ThermostatSetpoint:DualSetpoint,  !- Control 1 Object Type
    Tight setpoint;          !- Control 1 Name

  ThermostatSetpoint:DualSetpoint,
    Tight setpoint,          !- Name
    Dual setpointlower,      !- Heating Setpoint Temperature Schedule Name
    Dual setpointUpper;      !- Cooling Setpoint Temperature Schedule Name

  Schedule:Compact,
    Dual setpointlower,      !- Name
    Temperature,             !- Schedule Type Limits Name
    Through: 12/31,          !- Field 1
    For: AllDays,            !- Field 2
    Until: 24:00,19.99;      !- Field 3

  Schedule:Compact,
    Dual setpointUpper,      !- Name
    Temperature,             !- Schedule Type Limits Name
    Through: 12/31,          !- Field 1
    For: AllDays,            !- Field 2
    Until: 24:00,20.01;      !- Field 3

  Schedule:Compact,
    Zone Control Type Sched, !- Name
    Control Type,            !- Schedule Type Limits Name
    Through: 12/31,          !- Field 1
    For: AllDays,            !- Field 2
    Until: 24:00,4;          !- Field 3

  ZoneHVAC:EquipmentConnections,
    GARAGE ZONE,             !- Zone Name
    Zone1Equipment,          !- Zone Conditioning Equipment List Name
    Garage inlet,            !- Zone Air Inlet Node or NodeList Name
    SOFC device air intakes, !- Zone Air Exhaust Node or NodeList Name
    Garage Air Node,         !- Zone Air Node Name
    Garage return;           !- Zone Return Air Node Name

  NodeList,
    SOFC device air intakes, !- Name
    SOFC Air Inlet Node,     !- Node 1 Name
    SOFC Air HR Inlet;       !- Node 2 Name

  ZoneHVAC:EquipmentList,
    Zone1Equipment,          !- Name
    ZoneHVAC:IdealLoadsAirSystem,  !- Zone Equipment 1 Object Type
    Zone1Air,                !- Zone Equipment 1 Name
    1,                       !- Zone Equipment 1 Cooling Sequence
    1;                       !- Zone Equipment 1 Heating or No-Load Sequence

  ZoneHVAC:IdealLoadsAirSystem,
    Zone1Air,                !- Name
    ,                        !- Availability Schedule Name
    Garage inlet,            !- Zone Supply Air Node Name
    ,                        !- Zone Exhaust Air Node Name
    50,                      !- Maximum Heating Supply Air Temperature {C}
    13,                      !- Minimum Cooling Supply Air Temperature {C}
    0.009,                   !- Maximum Heating Supply Air Humidity Ratio {kgWater/kgDryAir}
    0.009,                   !- Minimum Cooling Supply Air Humidity Ratio {kgWater/kgDryAir}
    NoLimit,                 !- Heating Limit
    10.0,                    !- Maximum Heating Air Flow Rate {m3/s}
    ,                        !- Maximum Sensible Heating Capacity {W}
    NoLimit,                 !- Cooling Limit
    10.0,                    !- Maximum Cooling Air Flow Rate {m3/s}
    ,                        !- Maximum Total Cooling Capacity {W}
    ,                        !- Heating Availability Schedule Name
    ,                        !- Cooling Availability Schedule Name
    ConstantSupplyHumidityRatio,  !- Dehumidification Control Type
    ,                        !- Cooling Sensible Heat Ratio {dimensionless}
    ConstantSupplyHumidityRatio,  !- Humidification Control Type
    ,                        !- Design Specification Outdoor Air Object Name
    ,                        !- Outdoor Air Inlet Node Name
    ,                        !- Demand Controlled Ventilation Type
    ,                        !- Outdoor Air Economizer Type
    ,                        !- Heat Recovery Type
    ,                        !- Sensible Heat Recovery Effectiveness {dimensionless}
    ;                        !- Latent Heat Recovery Effectiveness {dimensionless}

  Exterior:FuelEquipment,
    Test Electric Load,      !- Name
    Electricity,             !- Fuel Use Type
    Electric Load Profile Sched,  !- Schedule Name
    10000;                   !- Design Level {W}

  Schedule:Compact,
    Electric Load Profile Sched,  !- Name
    Fraction,                !- Schedule Type Limits Name
    THROUGH: 12/31,          !- Field 1
    FOR: AllDays,            !- Field 2
    UNTIL:  1:00,0.1000,     !- Field 3
    UNTIL:  2:00,0.1100,     !- Field 5
    UNTIL:  3:00,0.1200,     !- Field 7
    UNTIL:  4:00,0.1300,     !- Field 9
    UNTIL:  5:00,0.1400,     !- Field 11
    UNTIL:  6:00,0.1500,     !- Field 13
    UNTIL:  7:00,0.1600,     !- Field 15
    UNTIL:  8:00,0.1700,     !- Field 17
    UNTIL:  9:00,0.1800,     !- Field 19
    UNTIL: 10:00,0.1900,     !- Field 21
    UNTIL: 11:00,0.2000,     !- Field 23
    UNTIL: 12:00,0.2100,     !- Field 25
    UNTIL: 13:00,0.2200,     !- Field 27
    UNTIL: 14:00,0.2300,     !- Field 29
    UNTIL: 15:00,0.2400,     !- Field 31
    UNTIL: 16:00,0.2500,     !- Field 33
    UNTIL: 17:00,0.2600,     !- Field 35
    UNTIL: 18:00,0.2700,     !- Field 37
    UNTIL: 19:00,0.2800,     !- Field 39
    UNTIL: 20:00,0.2900,     !- Field 41
    UNTIL: 21:00,0.3000,     !- Field 43
    UNTIL: 22:00,0.3100,     !- Field 45
    UNTIL: 23:00,0.3200,     !- Field 47
    UNTIL: 24:00,0.3300;     !- Field 49

  GlobalGeometryRules,
    UpperLeftCorner,         !- Starting Vertex Position
    CounterClockWise,        !- Vertex Entry Direction
    World;                   !- Coordinate System

  BuildingSurface:Detailed,
    Garage:EastWall,         !- Name
    WALL,                    !- Surface Type
    EXTWALL:GARAGE,          !- Construction Name
    GARAGE ZONE,             !- Zone Name
    Outdoors,                !- Outside Boundary Condition
    ,                        !- Outside Boundary Condition Object
    SunExposed,              !- Sun Exposure
    WindExposed,             !- Wind Exposure
    0.5,                     !- View Factor to Ground
    4,                       !- Number of Vertices
    17.242,10.778,2.4384,  !- X,Y,Z ==> Vertex 1 {m}
    17.242,10.778,0,  !- X,Y,Z ==> Vertex 2 {m}
    17.242,16.876,0,  !- X,Y,Z ==> Vertex 3 {m}
    17.242,16.876,2.4384;  !- X,Y,Z ==> Vertex 4 {m}

  ZoneInfiltration:DesignFlowRate,
    GARAGE ZONE,             !- Name
    GARAGE ZONE,             !- Zone or ZoneList Name
    INF-SCHED,               !- Schedule Name
    flow/zone,               !- Design Flow Rate Calculation Method
    0.3,                     !- Design Flow Rate {m3/s}
    ,                        !- Flow per Zone Floor Area {m3/s-m2}
    ,                        !- Flow per Exterior Surface Area {m3/s-m2}
    ,                        !- Air Changes per Hour {1/hr}
    1,                       !- Constant Term Coefficient
    0,                       !- Temperature Term Coefficient
    0,                       !- Velocity Term Coefficient
    0;                       !- Velocity Squared Term Coefficient

  Schedule:Compact,
    INF-SCHED,               !- Name
    Fraction,                !- Schedule Type Limits Name
    THROUGH: 12/31,          !- Field 1
    FOR: AllDays,            !- Field 2
    UNTIL: 24:00,1.0;        !- Field 3

  ScheduleTypeLimits,
    Any Number;              !- Name

  ScheduleTypeLimits,
    Fraction,                !- Name
    0.0,                     !- Lower Limit Value
    1.0,                     !- Upper Limit Value
    CONTINUOUS;              !- Numeric Type

  ScheduleTypeLimits,
    Temperature,             !- Name
    -60,                     !- Lower Limit Value
    200,                     !- Upper Limit Value
    CONTINUOUS,              !- Numeric Type
    Temperature;             !- Unit Type

  ScheduleTypeLimits,
    Control Type,            !- Name
    0,                       !- Lower Limit Value
    4,                       !- Upper Limit Value
    DISCRETE;                !- Numeric Type

  ScheduleTypeLimits,
    On/Off,                  !- Name
    0,                       !- Lower Limit Value
    1,                       !- Upper Limit Value
    DISCRETE;                !- Numeric Type

  Schedule:Compact,
    Always_ON,               !- Name
    Any Number,              !- Schedule Type Limits Name
    THROUGH: 12/31,          !- Field 1
    FOR: AllDays,            !- Field 2
    UNTIL: 24:00,1.0;        !- Field 3

  ElectricLoadCenter:Distribution,
    Electric Load Center,    !- Name
    Micro-Generators,        !- Generator List Name
    TrackElectrical,         !- Generator Operation Scheme Type
    0.0,                     !- Demand Limit Scheme Purchased Electric Demand Limit {W}
    ,                        !- Track Schedule Name Scheme Schedule Name
    ,                        !- Track Meter Scheme Meter Name
    AlternatingCurrent;      !- Electrical Buss Type

  ElectricLoadCenter:Generators,
    Micro-Generators,        !- Name
    Fictitious SOFC,         !- Generator 1 Name
    Generator:FuelCell,      !- Generator 1 Object Type
    3400,                    !- Generator 1 Rated Electric Power Output {W}
    Always_ON,               !- Generator 1 Availability Schedule Name
    ;                        !- Generator 1 Rated Thermal to Electrical Power Ratio

  Generator:FuelCell,
    Fictitious SOFC,         !- Name
    Fictitious SOFC Power Module,  !- Power Module Name
    Fictitious SOFC Air Supply,  !- Air Supply Name
    Fictitious SOFC Fuel Supply,  !- Fuel Supply Name
    Fictitious SOFC Water Supply,  !- Water Supply Name
    Fictitious SOFC Auxiliary Heater,  !- Auxiliary Heater Name
    Fictitious SOFC Exhaust HX,  !- Heat Exchanger Name
    Fictitious SOFC Battery, !- Electrical Storage Name
    Fictitious SOFC Inverter;!- Inverter Name

  Generator:FuelCell:PowerModule,
    Fictitious SOFC Power Module,  !- Name
    Annex42,                 !- Efficiency Curve Mode
    Fictitious Power Curve,  !- Efficiency Curve Name
    ,                        !- Nominal Efficiency
    ,                        !- Nominal Electrical Power {W}
    0,                       !- Number of Stops at Start of Simulation
    0.0,                     !- Cycling Performance Degradation Coefficient
    1000,                    !- Number of Run Hours at Beginning of Simulation {hr}
    0.0,                     !- Accumulated Run Time Degradation Coefficient
    3000,                    !- Run Time Degradation Initiation Time Threshold {hr}
    10.0,                    !- Power Up Transient Limit {W/s}
    10.0,                    !- Power Down Transient Limit {W/s}
    0.0,                     !- Start Up Time {s}
    0.2,                     !- Start Up Fuel {kmol}
    6.0E+06,                 !- Start Up Electricity Consumption {J}
    0.0,                     !- Start Up Electricity Produced {J}
    0.0,                     !- Shut Down Time {s}
    0.2,                     !- Shut Down Fuel {kmol}
    6.0E+06,                 !- Shut Down Electricity Consumption {J}
    0.0,                     !- Ancillary Electricity Constant Term
    0.0,                     !- Ancillary Electricity Linear Term
    ConstantRate,            !- Skin Loss Calculation Mode
    GARAGE ZONE,             !- Zone Name
    0.2,                     !- Skin Loss Radiative Fraction
    0.0,                     !- Constant Skin Loss Rate {W}
    0.0,                     !- Skin Loss U-Factor Times Area Term {W/K}
    ,                        !- Skin Loss Quadratic Curve Name
    0.0,                     !- Dilution Air Flow Rate {kmol/s}
    0.0,                     !- Stack Heat loss to Dilution Air {W}
    SOFC Air HR Inlet,       !- Dilution Inlet Air Node Name
    SOFC Air HR Outlet,      !- Dilution Outlet Air Node Name
    900.0,                   !- Minimum Operating Point {W}
    3400.0;                  !- Maximum Operating Point {W}

  Curve:Quadratic,
    Fictitious Power Curve,  !- Name
    0.3,                     !- Coefficient1 Constant
    1.1E-4,                  !- Coefficient2 x
    -2.0E-8,                 !- Coefficient3 x**2
    0.0,                     !- Minimum Value of x
    10000;                   !- Maximum Value of x

!Outside Air inlet node list,
!  SOFC Air Inlet Node;

  Generator:FuelCell:AirSupply,
    Fictitious SOFC Air Supply,  !- Name
    SOFC Air Inlet Node,     !- Air Inlet Node Name
    Fictitious Blower Power Curve,  !- Blower Power Curve Name
    1.0,                     !- Blower Heat Loss Factor
    QuadraticFunctionofElectricPower,  !- Air Supply Rate Calculation Mode
    ,                        !- Stoichiometric Ratio
    Fictitious Excess Air Ratio Curve,  !- Air Rate Function of Electric Power Curve Name
    0.0,                     !- Air Rate Air Temperature Coefficient
    ,                        !- Air Rate Function of Fuel Rate Curve Name
    RecoverInverterandStorage,  !- Air Intake Heat Recovery Mode
    UserDefinedConstituents, !- Air Supply Constituent Mode
    5,                       !- Number of UserDefined Constituents
    Nitrogen,                !- Constituent 1 Name
    0.7728,                  !- Molar Fraction 1
    Oxygen,                  !- Constituent 2 Name
    0.2073,                  !- Molar Fraction 2
    Water,                   !- Constituent 3 Name
    0.0104,                  !- Molar Fraction 3
    Argon,                   !- Constituent 4 Name
    0.0092,                  !- Molar Fraction 4
    CarbonDioxide,           !- Constituent 5 Name
    0.0003;                  !- Molar Fraction 5

  Curve:Cubic,
    Fictitious Blower Power Curve,  !- Name
    50.0,                    !- Coefficient1 Constant
    4.0E+05,                 !- Coefficient2 x
    0.0,                     !- Coefficient3 x**2
    0.0,                     !- Coefficient4 x**3
    0.0,                     !- Minimum Value of x
    10000;                   !- Maximum Value of x

  Curve:Quadratic,
    Fictitious Excess Air Ratio Curve,  !- Name
    5E-5,                    !- Coefficient1 Constant
    1.5E-07,                 !- Coefficient2 x
    1.1E-12,                 !- Coefficient3 x**2
    0.0,                     !- Minimum Value of x
    10000.0;                 !- Maximum Value of x

! sets of input data on each constituent

  Generator:FuelSupply,
    Fictitious SOFC Fuel Supply,  !- Name
    TemperatureFromAirNode,  !- Fuel Temperature Modeling Mode
    SOFC Air Inlet Node,     !- Fuel Temperature Reference Node Name
    ,                        !- Fuel Temperature Schedule Name
    Fictitious Fuel Compressor Power Curve,  !- Compressor Power Function of Fuel Rate Curve Name
    1.0,                     !- Compressor Heat Loss Factor
    GaseousConstituents,     !- Fuel Type
    ,                        !- Liquid Generic Fuel Lower Heating Value {kJ/kg}
    ,                        !- Liquid Generic Fuel Higher Heating Value {kJ/kg}
    ,                        !- Liquid Generic Fuel Molecular Weight {g/mol}
    ,                        !- Liquid Generic Fuel CO2 Emission Factor
    1,                       !- Number of Constituents in Gaseous Constituent Fuel Supply
    Methane,                 !- Constituent 1 Name
    1.0;                     !- Constituent 1 Molar Fraction

  Curve:Cubic,
    Fictitious Fuel Compressor Power Curve,  !- Name
    10.0,                    !- Coefficient1 Constant
    1000000.0,               !- Coefficient2 x
    0.0,                     !- Coefficient3 x**2
    0.0,                     !- Coefficient4 x**3
    0.0,                     !- Minimum Value of x
    500;                     !- Maximum Value of x

  Generator:FuelCell:WaterSupply,
    Fictitious SOFC Water Supply,  !- Name
    Null Quadratic,          !- Reformer Water Flow Rate Function of Fuel Rate Curve Name
    Null Cubic,              !- Reformer Water Pump Power Function of Fuel Rate Curve Name
    0.05,                    !- Pump Heat Loss Factor
    TemperatureFromAirNode,  !- Water Temperature Modeling Mode
    SOFC Air Inlet Node;     !- Water Temperature Reference Node Name

  Curve:Quadratic,
    Null Quadratic,          !- Name
    0.0,                     !- Coefficient1 Constant
    0.0,                     !- Coefficient2 x
    0.0,                     !- Coefficient3 x**2
    -1.0E+10,                !- Minimum Value of x
    1.0E+10;                 !- Maximum Value of x

  Curve:Cubic,
    Null Cubic,              !- Name
    0.0,                     !- Coefficient1 Constant
    0.0,                     !- Coefficient2 x
    0.0,                     !- Coefficient3 x**2
    0.0,                     !- Coefficient4 x**3
    -1.0E+10,                !- Minimum Value of x
    1.0E+10;                 !- Maximum Value of x

  Generator:FuelCell:AuxiliaryHeater,
    Fictitious SOFC Auxiliary Heater,  !- Name
    0.3,                     !- Excess Air Ratio
    10.0,                    !- Ancillary Power Constant Term
    1.0E+07,                 !- Ancillary Power Linear Term
    0.5,                     !- Skin Loss U-Factor Times Area Value {W/K}
    SurroundingZone,         !- Skin Loss Destination
    GARAGE ZONE,             !- Zone Name to Receive Skin Losses
    Watts,                   !- Heating Capacity Units
    20000,                   !- Maximum Heating Capacity in Watts {W}
    0.0;                     !- Minimum Heating Capacity in Watts {W}

  Generator:FuelCell:ExhaustGasToWaterHeatExchanger,
    Fictitious SOFC Exhaust HX,  !- Name
    Small SOFC Heat Rec Inlet Node,  !- Heat Recovery Water Inlet Node Name
    Small SOFC Heat Rec Outlet Node,  !- Heat Recovery Water Outlet Node Name
    0.004,                   !- Heat Recovery Water Maximum Flow Rate {m3/s}
    SOFC Air Outlet Node,    !- Exhaust Outlet Air Node Name
    FixedEffectiveness,      !- Heat Exchanger Calculation Method
    0.8,                     !- Method 1 Heat Exchanger Effectiveness
    20.0,                    !- Method 2 Parameter hxs0
    1470.0,                  !- Method 2 Parameter hxs1
    21000.0,                 !- Method 2 Parameter hxs2
    19608.0,                 !- Method 2 Parameter hxs3
    4.0E+06,                 !- Method 2 Parameter hxs4
    ,                        !- Method 3 h0Gas Coefficient
    ,                        !- Method 3 NdotGasRef Coefficient
    ,                        !- Method 3 n Coefficient
    ,                        !- Method 3 Gas Area {m2}
    ,                        !- Method 3 h0 Water Coefficient
    ,                        !- Method 3 N dot Water ref Coefficient
    ,                        !- Method 3 m Coefficient
    ,                        !- Method 3 Water Area {m2}
    ,                        !- Method 3 F Adjustment Factor
    1.0E-05,                 !- Method 4 hxl1 Coefficient
    0.0,                     !- Method 4 hxl2 Coefficient
    90.0;                    !- Method 4 Condensation Threshold {C}

  Generator:FuelCell:ElectricalStorage,
    Fictitious SOFC Battery, !- Name
    SimpleEfficiencyWithConstraints,  !- Choice of Model
    1.0,                     !- Nominal Charging Energetic Efficiency
    1.0,                     !- Nominal Discharging Energetic Efficiency
    0,                       !- Simple Maximum Capacity {J}
    0,                       !- Simple Maximum Power Draw {W}
    0,                       !- Simple Maximum Power Store {W}
    0;                       !- Initial Charge State {J}

  Generator:FuelCell:Inverter,
    Fictitious SOFC Inverter,!- Name
    Constant,                !- Inverter Efficiency Calculation Mode
    1.0,                     !- Inverter Efficiency
    Null Quadratic;          !- Efficiency Function of DC Power Curve Name

  Site:WaterMainsTemperature,
    Schedule,                !- Calculation Method
    HOT WATER SETPOINTs Annex42 FC test,  !- Temperature Schedule Name
    9.69,                    !- Annual Average Outdoor Air Temperature {C}
    28.1;                    !- Maximum Difference In Monthly Average Outdoor Air Temperatures {deltaC}

  Schedule:Compact,
    HOT WATER SETPOINTs Annex42 FC test,  !- Name
    Temperature,             !- Schedule Type Limits Name
    THROUGH: 12/31,          !- Field 1
    FOR: AllDays,            !- Field 2
    UNTIL: 24:00,25.0;       !- Field 3

  PlantLoop,
    Heat Recovery Water Loop,!- Name
    Water,                   !- Fluid Type
    ,                        !- User Defined Fluid Type
    Recovery Loop Operation, !- Plant Equipment Operation Scheme Name
    Heat Recovery Supply Outlet Node,  !- Loop Temperature Setpoint Node Name
    98,                      !- Maximum Loop Temperature {C}
    10,                      !- Minimum Loop Temperature {C}
    1.50E-04,                !- Maximum Loop Flow Rate {m3/s}
    0.00,                    !- Minimum Loop Flow Rate {m3/s}
    autocalculate,           !- Plant Loop Volume {m3}
    Heat Recovery Supply Inlet Node,  !- Plant Side Inlet Node Name
    Heat Recovery Supply Outlet Node,  !- Plant Side Outlet Node Name
    Heat Recovery Supply Side Branches,  !- Plant Side Branch List Name
    ,                        !- Plant Side Connector List Name
    Heat Recovery Demand Inlet Node,  !- Demand Side Inlet Node Name
    Heat Recovery Demand Outlet Node,  !- Demand Side Outlet Node Name
    Heat Recovery Demand Side Branches,  !- Demand Side Branch List Name
    ,                        !- Demand Side Connector List Name
    Optimal,                 !- Load Distribution Scheme
    Always_ON;               !- Availability Manager List Name

  PlantEquipmentOperationSchemes,
    Recovery Loop Operation, !- Name
    PlantEquipmentOperation:Uncontrolled,  !- Control Scheme 1 Object Type
    CHP test,                !- Control Scheme 1 Name
    Always_ON;               !- Control Scheme 1 Schedule Name

  PlantEquipmentOperation:Uncontrolled,
    CHP test,                !- Name
    CHP plant;               !- Equipment List Name

  PlantEquipmentList,
    CHP plant,               !- Name
    Generator:FuelCell:ExhaustGasToWaterHeatExchanger,  !- Equipment 1 Object Type
    Fictitious SOFC Exhaust HX;  !- Equipment 1 Name

!may need to add CHP device to equipment list here
