!-Generator IDFEditor 1.34
!-Option OriginalOrderTop UseSpecialFormat
!-NOTE: All comments with '!-' are ignored by the IDFEditor and are generated automatically.
!-      Use '!' comments if they need to be retained when using the IDFEditor.
! MaterialTest.idf
! Basic file description: Multiple material testing for EnergyPlus
! Run:      2 design days.
! Building: Fictional 18 zone building.  Various windows.
! Internal: None.
! System:   None.
! Plant:    None.
! SolDis=FullInteriorAndExterior, Aniso, Detailed Interior and Exterior Convection
! 7/27/00 -- Restored 4-pane cases (had been set to 3-pane)
! 8/21/01 -- Add new fields to Material:WindowShade (FW)

  Version,8.5;

  Timestep,4;

  Building,
    BUILDING,                !- Name
    0,                       !- North Axis {deg}
    Suburbs,                 !- Terrain
    1.0000000E-03,           !- Loads Convergence Tolerance Value
    9.9999998E-03,           !- Temperature Convergence Tolerance Value {deltaC}
    FullInteriorAndExterior, !- Solar Distribution
    25,                      !- Maximum Number of Warmup Days
    6;                       !- Minimum Number of Warmup Days

  HeatBalanceAlgorithm,ConductionTransferFunction;

  SurfaceConvectionAlgorithm:Inside,TARP;

  SurfaceConvectionAlgorithm:Outside,DOE-2;

  SimulationControl,
    No,                      !- Do Zone Sizing Calculation
    No,                      !- Do System Sizing Calculation
    No,                      !- Do Plant Sizing Calculation
    Yes,                     !- Run Simulation for Sizing Periods
    No;                      !- Run Simulation for Weather File Run Periods

  RunPeriod,
    ,                        !- Name
    1,                       !- Begin Month
    1,                       !- Begin Day of Month
    12,                      !- End Month
    31,                      !- End Day of Month
    Tuesday,                 !- Day of Week for Start Day
    Yes,                     !- Use Weather File Holidays and Special Days
    Yes,                     !- Use Weather File Daylight Saving Period
    No,                      !- Apply Weekend Holiday Rule
    Yes,                     !- Use Weather File Rain Indicators
    Yes;                     !- Use Weather File Snow Indicators

  Site:Location,
    DENVER_STAPLETON_CO_USA_WMO_724690,  !- Name
    39.77,                   !- Latitude {deg}
    -104.87,                 !- Longitude {deg}
    -7.00,                   !- Time Zone {hr}
    1611.00;                 !- Elevation {m}

! DENVER_STAPLETON_CO_USA Annual Heating 99.6%, MaxDB=-20°C

  SizingPeriod:DesignDay,
    DENVER_STAPLETON Ann Htg 99.6% Condns DB,  !- Name
    12,                      !- Month
    21,                      !- Day of Month
    WinterDesignDay,         !- Day Type
    -20,                     !- Maximum Dry-Bulb Temperature {C}
    0.0,                     !- Daily Dry-Bulb Temperature Range {deltaC}
    ,                        !- Dry-Bulb Temperature Range Modifier Type
    ,                        !- Dry-Bulb Temperature Range Modifier Day Schedule Name
    Wetbulb,                 !- Humidity Condition Type
    -20,                     !- Wetbulb or DewPoint at Maximum Dry-Bulb {C}
    ,                        !- Humidity Condition Day Schedule Name
    ,                        !- Humidity Ratio at Maximum Dry-Bulb {kgWater/kgDryAir}
    ,                        !- Enthalpy at Maximum Dry-Bulb {J/kg}
    ,                        !- Daily Wet-Bulb Temperature Range {deltaC}
    83411.,                  !- Barometric Pressure {Pa}
    2.3,                     !- Wind Speed {m/s}
    180,                     !- Wind Direction {deg}
    No,                      !- Rain Indicator
    No,                      !- Snow Indicator
    No,                      !- Daylight Saving Time Indicator
    ASHRAEClearSky,          !- Solar Model Indicator
    ,                        !- Beam Solar Day Schedule Name
    ,                        !- Diffuse Solar Day Schedule Name
    ,                        !- ASHRAE Clear Sky Optical Depth for Beam Irradiance (taub) {dimensionless}
    ,                        !- ASHRAE Clear Sky Optical Depth for Diffuse Irradiance (taud) {dimensionless}
    0.00;                    !- Sky Clearness

! DENVER_STAPLETON_CO_USA Annual Cooling (DB=>MWB) .4%, MaxDB=34.1°C MWB=15.8°C

  SizingPeriod:DesignDay,
    DENVER_STAPLETON Ann Clg .4% Condns DB=>MWB,  !- Name
    7,                       !- Month
    21,                      !- Day of Month
    SummerDesignDay,         !- Day Type
    34.1,                    !- Maximum Dry-Bulb Temperature {C}
    15.2,                    !- Daily Dry-Bulb Temperature Range {deltaC}
    ,                        !- Dry-Bulb Temperature Range Modifier Type
    ,                        !- Dry-Bulb Temperature Range Modifier Day Schedule Name
    Wetbulb,                 !- Humidity Condition Type
    15.8,                    !- Wetbulb or DewPoint at Maximum Dry-Bulb {C}
    ,                        !- Humidity Condition Day Schedule Name
    ,                        !- Humidity Ratio at Maximum Dry-Bulb {kgWater/kgDryAir}
    ,                        !- Enthalpy at Maximum Dry-Bulb {J/kg}
    ,                        !- Daily Wet-Bulb Temperature Range {deltaC}
    83411.,                  !- Barometric Pressure {Pa}
    4,                       !- Wind Speed {m/s}
    120,                     !- Wind Direction {deg}
    No,                      !- Rain Indicator
    No,                      !- Snow Indicator
    No,                      !- Daylight Saving Time Indicator
    ASHRAEClearSky,          !- Solar Model Indicator
    ,                        !- Beam Solar Day Schedule Name
    ,                        !- Diffuse Solar Day Schedule Name
    ,                        !- ASHRAE Clear Sky Optical Depth for Beam Irradiance (taub) {dimensionless}
    ,                        !- ASHRAE Clear Sky Optical Depth for Diffuse Irradiance (taud) {dimensionless}
    1.00;                    !- Sky Clearness

  Material,
    EPREGMAT1,               !- Name
    VeryRough,               !- Roughness
    0.1000000,               !- Thickness {m}
    1.400000,                !- Conductivity {W/m-K}
    2300.000,                !- Density {kg/m3}
    880.0000,                !- Specific Heat {J/kg-K}
    0.9000000,               !- Thermal Absorptance
    0.8500000,               !- Solar Absorptance
    0.8500000;               !- Visible Absorptance

  Material:AirGap,
    EPAIR1,                  !- Name
    3.5000000E-02;           !- Thermal Resistance {m2-K/W}

  Material,
    E5 - ACOUSTIC TILE,      !- Name
    MediumSmooth,            !- Roughness
    1.9050000E-02,           !- Thickness {m}
    6.0535200E-02,           !- Conductivity {W/m-K}
    480.5539,                !- Density {kg/m3}
    836.8000,                !- Specific Heat {J/kg-K}
    0.9000000,               !- Thermal Absorptance
    0.3200000,               !- Solar Absorptance
    0.3200000;               !- Visible Absorptance

  Material:AirGap,
    E4 - CEILING AIRSPACE,   !- Name
    0.1762280;               !- Thermal Resistance {m2-K/W}

  Material,
    C12 - 2 IN HW CONCRETE,  !- Name
    MediumRough,             !- Roughness
    5.0901599E-02,           !- Thickness {m}
    1.729577,                !- Conductivity {W/m-K}
    2242.585,                !- Density {kg/m3}
    836.8000,                !- Specific Heat {J/kg-K}
    0.9000000,               !- Thermal Absorptance
    0.6500000,               !- Solar Absorptance
    0.6500000;               !- Visible Absorptance

  Material,
    EPREGMAT2,               !- Name
    Rough,                   !- Roughness
    0.1000000,               !- Thickness {m}
    1.400000,                !- Conductivity {W/m-K}
    2300.000,                !- Density {kg/m3}
    880.0000,                !- Specific Heat {J/kg-K}
    0.8000000,               !- Thermal Absorptance
    0.7500000,               !- Solar Absorptance
    0.7500000;               !- Visible Absorptance

  Material:NoMass,
    EPREGMAT3,               !- Name
    MediumRough,             !- Roughness
    7.1428001E-02,           !- Thermal Resistance {m2-K/W}
    0.9000000,               !- Thermal Absorptance
    0.8500000,               !- Solar Absorptance
    0.8500000;               !- Visible Absorptance

  WindowMaterial:Glazing,
    EPGLASSREG1,             !- Name
    SpectralAverage,         !- Optical Data Type
    ,                        !- Window Glass Spectral Data Set Name
    0.003,                   !- Thickness {m}
    0.85,                    !- Solar Transmittance at Normal Incidence
    0.075,                   !- Front Side Solar Reflectance at Normal Incidence
    0.075,                   !- Back Side Solar Reflectance at Normal Incidence
    0.901,                   !- Visible Transmittance at Normal Incidence
    0.081,                   !- Front Side Visible Reflectance at Normal Incidence
    0.081,                   !- Back Side Visible Reflectance at Normal Incidence
    0.0,                     !- Infrared Transmittance at Normal Incidence
    0.84,                    !- Front Side Infrared Hemispherical Emissivity
    0.84,                    !- Back Side Infrared Hemispherical Emissivity
    0.9;                     !- Conductivity {W/m-K}

  WindowMaterial:Glazing,
    EPGLASSREG2,             !- Name
    SpectralAverage,         !- Optical Data Type
    ,                        !- Window Glass Spectral Data Set Name
    0.006,                   !- Thickness {m}
    0.60,                    !- Solar Transmittance at Normal Incidence
    0.17,                    !- Front Side Solar Reflectance at Normal Incidence
    0.22,                    !- Back Side Solar Reflectance at Normal Incidence
    0.85,                    !- Visible Transmittance at Normal Incidence
    0.055,                   !- Front Side Visible Reflectance at Normal Incidence
    0.070,                   !- Back Side Visible Reflectance at Normal Incidence
    0.0,                     !- Infrared Transmittance at Normal Incidence
    0.84,                    !- Front Side Infrared Hemispherical Emissivity
    0.10,                    !- Back Side Infrared Hemispherical Emissivity
    0.9;                     !- Conductivity {W/m-K}

  WindowMaterial:Glazing,
    EPGLASSREG3,             !- Name
    SpectralAverage,         !- Optical Data Type
    ,                        !- Window Glass Spectral Data Set Name
    0.006,                   !- Thickness {m}
    0.775,                   !- Solar Transmittance at Normal Incidence
    0.071,                   !- Front Side Solar Reflectance at Normal Incidence
    0.071,                   !- Back Side Solar Reflectance at Normal Incidence
    0.881,                   !- Visible Transmittance at Normal Incidence
    0.080,                   !- Front Side Visible Reflectance at Normal Incidence
    0.080,                   !- Back Side Visible Reflectance at Normal Incidence
    0.0,                     !- Infrared Transmittance at Normal Incidence
    0.84,                    !- Front Side Infrared Hemispherical Emissivity
    0.84,                    !- Back Side Infrared Hemispherical Emissivity
    0.9;                     !- Conductivity {W/m-K}

  WindowMaterial:Gas,
    EPAIRGAP,                !- Name
    AIR,                     !- Gas Type
    0.0125;                  !- Thickness {m}

  WindowMaterial:Gas,
    CO2P,                    !- Name
    Custom,                  !- Gas Type
    0.0125,                  !- Thickness {m}
    -5.8181E-3,              !- Conductivity Coefficient A {W/m-K}
    7.4714E-5,               !- Conductivity Coefficient B {W/m-K2}
    0.0,                     !- Conductivity Coefficient C {W/m-K3}
    8.5571E-7,               !- Viscosity Coefficient A {kg/m-s}
    4.7143E-8,               !- Viscosity Coefficient B {kg/m-s-K}
    0.0,                     !- Viscosity Coefficient C {kg/m-s-K2}
    5.76903E2,               !- Specific Heat Coefficient A {J/kg-K}
    9.18088E-2,              !- Specific Heat Coefficient B {J/kg-K2}
    0.0,                     !- Specific Heat Coefficient C {J/kg-K3}
    44.01;                   !- Molecular Weight {g/mol}

  WindowMaterial:Shade,
    EPSHADE,                 !- Name
    0.05,                    !- Solar Transmittance {dimensionless}
    0.50,                    !- Solar Reflectance {dimensionless}
    0.05,                    !- Visible Transmittance {dimensionless}
    0.50,                    !- Visible Reflectance {dimensionless}
    0.90,                    !- Infrared Hemispherical Emissivity {dimensionless}
    0.0,                     !- Infrared Transmittance {dimensionless}
    0.001,                   !- Thickness {m}
    0.1,                     !- Conductivity {W/m-K}
    0.050,                   !- Shade to Glass Distance {m}
    1.0,                     !- Top Opening Multiplier
    1.0,                     !- Bottom Opening Multiplier
    0.0,                     !- Left-Side Opening Multiplier
    0.0,                     !- Right-Side Opening Multiplier
    0.0;                     !- Airflow Permeability {dimensionless}

  WindowMaterial:Glazing,
    EPGLASSSC4,              !- Name
    SpectralAverage,         !- Optical Data Type
    ,                        !- Window Glass Spectral Data Set Name
    8.9999996E-03,           !- Thickness {m}
    0.7240000,               !- Solar Transmittance at Normal Incidence
    6.4999998E-02,           !- Front Side Solar Reflectance at Normal Incidence
    6.4999998E-02,           !- Back Side Solar Reflectance at Normal Incidence
    0.8580000,               !- Visible Transmittance at Normal Incidence
    7.4000001E-02,           !- Front Side Visible Reflectance at Normal Incidence
    7.4000001E-02,           !- Back Side Visible Reflectance at Normal Incidence
    0,                       !- Infrared Transmittance at Normal Incidence
    0.8400000,               !- Front Side Infrared Hemispherical Emissivity
    0.8400000,               !- Back Side Infrared Hemispherical Emissivity
    1.400000;                !- Conductivity {W/m-K}

  Construction,
    EPWALL1,                 !- Name
    EPREGMAT1,               !- Outside Layer
    EPAIR1,                  !- Layer 2
    EPREGMAT1;               !- Layer 3

  Construction,
    EPWINDOW12,              !- Name
    EPGLASSREG1,             !- Outside Layer
    EPAIRGAP,                !- Layer 2
    EPGLASSREG1;             !- Layer 3

  Construction,
    FLOOR38,                 !- Name
    E5 - ACOUSTIC TILE,      !- Outside Layer
    E4 - CEILING AIRSPACE,   !- Layer 2
    C12 - 2 IN HW CONCRETE;  !- Layer 3

  Construction,
    CEILING38,               !- Name
    C12 - 2 IN HW CONCRETE,  !- Outside Layer
    E4 - CEILING AIRSPACE,   !- Layer 2
    E5 - ACOUSTIC TILE;      !- Layer 3

  Construction,
    EPWINDOW14,              !- Name
    EPGLASSREG1,             !- Outside Layer
    EPAIRGAP,                !- Layer 2
    EPGLASSREG1,             !- Layer 3
    EPAIRGAP,                !- Layer 4
    EPGLASSREG1,             !- Layer 5
    EPAIRGAP,                !- Layer 6
    EPGLASSREG1;             !- Layer 7

  Construction,
    EPWINDOW1S,              !- Name
    EPGLASSREG1,             !- Outside Layer
    EPAIRGAP,                !- Layer 2
    EPGLASSREG1,             !- Layer 3
    EPSHADE;                 !- Layer 4

  Construction,
    EPWINDOW1S:no-shade,     !- Name
    EPGLASSREG1,             !- Outside Layer
    EPAIRGAP,                !- Layer 2
    EPGLASSREG1;             !- Layer 3

  Construction,
    EPWALL2,                 !- Name
    EPREGMAT2,               !- Outside Layer
    EPAIR1,                  !- Layer 2
    EPREGMAT2;               !- Layer 3

  Construction,
    EPWALL3,                 !- Name
    EPREGMAT3,               !- Outside Layer
    EPAIR1,                  !- Layer 2
    EPREGMAT3;               !- Layer 3

  Construction,
    EPWINDOW22,              !- Name
    EPGLASSREG2,             !- Outside Layer
    EPAIRGAP,                !- Layer 2
    EPGLASSREG2;             !- Layer 3

  Construction,
    EPWINDOW24,              !- Name
    EPGLASSREG2,             !- Outside Layer
    EPAIRGAP,                !- Layer 2
    EPGLASSREG2,             !- Layer 3
    EPAIRGAP,                !- Layer 4
    EPGLASSREG2,             !- Layer 5
    EPAIRGAP,                !- Layer 6
    EPGLASSREG2;             !- Layer 7

  Construction,
    EPWINDOW2S,              !- Name
    EPGLASSREG2,             !- Outside Layer
    EPAIRGAP,                !- Layer 2
    EPGLASSREG2,             !- Layer 3
    EPSHADE;                 !- Layer 4

  Construction,
    EPWINDOW2S:no-shade,     !- Name
    EPGLASSREG2,             !- Outside Layer
    EPAIRGAP,                !- Layer 2
    EPGLASSREG2;             !- Layer 3

  Construction,
    EPWINDOW32,              !- Name
    EPGLASSREG3,             !- Outside Layer
    EPAIRGAP,                !- Layer 2
    EPGLASSREG3;             !- Layer 3

  Construction,
    EPWINDOW34,              !- Name
    EPGLASSREG3,             !- Outside Layer
    EPAIRGAP,                !- Layer 2
    EPGLASSREG3,             !- Layer 3
    EPAIRGAP,                !- Layer 4
    EPGLASSREG3,             !- Layer 5
    EPAIRGAP,                !- Layer 6
    EPGLASSREG3;             !- Layer 7

  Construction,
    EPWINDOW3S,              !- Name
    EPSHADE,                 !- Outside Layer
    EPGLASSREG3,             !- Layer 2
    EPAIRGAP,                !- Layer 3
    EPGLASSREG3;             !- Layer 4

  Construction,
    EPWINDOW3S:no-shade,     !- Name
    EPGLASSREG3,             !- Outside Layer
    EPAIRGAP,                !- Layer 2
    EPGLASSREG3;             !- Layer 3

  Construction,
    EPWINDOWSC,              !- Name
    EPSHADE,                 !- Outside Layer
    EPGLASSSC4;              !- Layer 2

  Construction,
    EPWINDOWSC:no-shade,     !- Name
    EPGLASSSC4;              !- Outside Layer

  WindowProperty:ShadingControl,
    EPWINDOW1S,              !- Name
    InteriorShade,           !- Shading Type
    EPWINDOW1S,              !- Construction with Shading Name
    OnIfHighSolarOnWindow,   !- Shading Control Type
    ,                        !- Schedule Name
    20.0,                    !- Setpoint {W/m2, W or deg C}
    NO,                      !- Shading Control Is Scheduled
    NO,                      !- Glare Control Is Active
    ,                        !- Shading Device Material Name
    ,                        !- Type of Slat Angle Control for Blinds
    ;                        !- Slat Angle Schedule Name

  WindowProperty:ShadingControl,
    EPWINDOW2S,              !- Name
    InteriorShade,           !- Shading Type
    EPWINDOW2S,              !- Construction with Shading Name
    OnIfHighSolarOnWindow,   !- Shading Control Type
    ,                        !- Schedule Name
    20.0,                    !- Setpoint {W/m2, W or deg C}
    NO,                      !- Shading Control Is Scheduled
    NO,                      !- Glare Control Is Active
    ,                        !- Shading Device Material Name
    ,                        !- Type of Slat Angle Control for Blinds
    ;                        !- Slat Angle Schedule Name

  WindowProperty:ShadingControl,
    EPWINDOW3S,              !- Name
    ExteriorShade,           !- Shading Type
    EPWINDOW3S,              !- Construction with Shading Name
    OnIfHighSolarOnWindow,   !- Shading Control Type
    ,                        !- Schedule Name
    20.0,                    !- Setpoint {W/m2, W or deg C}
    NO,                      !- Shading Control Is Scheduled
    NO,                      !- Glare Control Is Active
    ,                        !- Shading Device Material Name
    ,                        !- Type of Slat Angle Control for Blinds
    ;                        !- Slat Angle Schedule Name

  WindowProperty:ShadingControl,
    EPWINDOWSC,              !- Name
    ExteriorShade,           !- Shading Type
    EPWINDOWSC,              !- Construction with Shading Name
    OnIfHighSolarOnWindow,   !- Shading Control Type
    ,                        !- Schedule Name
    20.0,                    !- Setpoint {W/m2, W or deg C}
    NO,                      !- Shading Control Is Scheduled
    NO,                      !- Glare Control Is Active
    ,                        !- Shading Device Material Name
    ,                        !- Type of Slat Angle Control for Blinds
    ;                        !- Slat Angle Schedule Name

  Site:GroundTemperature:BuildingSurface,18.89,18.92,19.02,19.12,19.21,19.23,19.07,19.32,19.09,19.21,19.13,18.96;

  Zone,
    ZONE WITH WALL1 WINDOW1, !- Name
    0,                       !- Direction of Relative North {deg}
    0,                       !- X Origin {m}
    0,                       !- Y Origin {m}
    0,                       !- Z Origin {m}
    1,                       !- Type
    1,                       !- Multiplier
    autocalculate,           !- Ceiling Height {m}
    autocalculate;           !- Volume {m3}

  Zone,
    ZONE WITH WALL1 WINDOW2, !- Name
    0,                       !- Direction of Relative North {deg}
    0,                       !- X Origin {m}
    0,                       !- Y Origin {m}
    0,                       !- Z Origin {m}
    1,                       !- Type
    1,                       !- Multiplier
    autocalculate,           !- Ceiling Height {m}
    autocalculate;           !- Volume {m3}

  Zone,
    ZONE WITH WALL1 WINDOW3, !- Name
    0,                       !- Direction of Relative North {deg}
    0,                       !- X Origin {m}
    0,                       !- Y Origin {m}
    0,                       !- Z Origin {m}
    1,                       !- Type
    1,                       !- Multiplier
    autocalculate,           !- Ceiling Height {m}
    autocalculate;           !- Volume {m3}

  Zone,
    ZONE WITH WALL2 WINDOW1, !- Name
    0,                       !- Direction of Relative North {deg}
    0,                       !- X Origin {m}
    0,                       !- Y Origin {m}
    0,                       !- Z Origin {m}
    1,                       !- Type
    1,                       !- Multiplier
    autocalculate,           !- Ceiling Height {m}
    autocalculate;           !- Volume {m3}

  Zone,
    ZONE WITH WALL2 WINDOW2, !- Name
    0,                       !- Direction of Relative North {deg}
    0,                       !- X Origin {m}
    0,                       !- Y Origin {m}
    0,                       !- Z Origin {m}
    1,                       !- Type
    1,                       !- Multiplier
    autocalculate,           !- Ceiling Height {m}
    autocalculate;           !- Volume {m3}

  Zone,
    ZONE WITH WALL2 WINDOW3, !- Name
    0,                       !- Direction of Relative North {deg}
    0,                       !- X Origin {m}
    0,                       !- Y Origin {m}
    0,                       !- Z Origin {m}
    1,                       !- Type
    1,                       !- Multiplier
    autocalculate,           !- Ceiling Height {m}
    autocalculate;           !- Volume {m3}

  Zone,
    ZONE WITH WALL3 WINDOW1, !- Name
    0,                       !- Direction of Relative North {deg}
    0,                       !- X Origin {m}
    0,                       !- Y Origin {m}
    0,                       !- Z Origin {m}
    1,                       !- Type
    1,                       !- Multiplier
    autocalculate,           !- Ceiling Height {m}
    autocalculate;           !- Volume {m3}

  Zone,
    ZONE WITH WALL3 WINDOW2, !- Name
    0,                       !- Direction of Relative North {deg}
    0,                       !- X Origin {m}
    0,                       !- Y Origin {m}
    0,                       !- Z Origin {m}
    1,                       !- Type
    1,                       !- Multiplier
    autocalculate,           !- Ceiling Height {m}
    autocalculate;           !- Volume {m3}

  Zone,
    ZONE WITH WALL3 WINDOW3, !- Name
    0,                       !- Direction of Relative North {deg}
    0,                       !- X Origin {m}
    0,                       !- Y Origin {m}
    0,                       !- Z Origin {m}
    1,                       !- Type
    1,                       !- Multiplier
    autocalculate,           !- Ceiling Height {m}
    autocalculate;           !- Volume {m3}

  Zone,
    ZONE WITH WALL1 WINDOW4, !- Name
    0,                       !- Direction of Relative North {deg}
    0,                       !- X Origin {m}
    0,                       !- Y Origin {m}
    0,                       !- Z Origin {m}
    1,                       !- Type
    1,                       !- Multiplier
    autocalculate,           !- Ceiling Height {m}
    autocalculate;           !- Volume {m3}

  Zone,
    ZONE WITH WALL1 WINDOW5, !- Name
    0,                       !- Direction of Relative North {deg}
    0,                       !- X Origin {m}
    0,                       !- Y Origin {m}
    0,                       !- Z Origin {m}
    1,                       !- Type
    1,                       !- Multiplier
    autocalculate,           !- Ceiling Height {m}
    autocalculate;           !- Volume {m3}

  Zone,
    ZONE WITH WALL1 WINDOW6, !- Name
    0,                       !- Direction of Relative North {deg}
    0,                       !- X Origin {m}
    0,                       !- Y Origin {m}
    0,                       !- Z Origin {m}
    1,                       !- Type
    1,                       !- Multiplier
    autocalculate,           !- Ceiling Height {m}
    autocalculate;           !- Volume {m3}

  Zone,
    ZONE WITH WALL1 WINDOW7, !- Name
    0,                       !- Direction of Relative North {deg}
    0,                       !- X Origin {m}
    0,                       !- Y Origin {m}
    0,                       !- Z Origin {m}
    1,                       !- Type
    1,                       !- Multiplier
    autocalculate,           !- Ceiling Height {m}
    autocalculate;           !- Volume {m3}

  Zone,
    ZONE WITH WALL1 WINDOW8, !- Name
    0,                       !- Direction of Relative North {deg}
    0,                       !- X Origin {m}
    0,                       !- Y Origin {m}
    0,                       !- Z Origin {m}
    1,                       !- Type
    1,                       !- Multiplier
    autocalculate,           !- Ceiling Height {m}
    autocalculate;           !- Volume {m3}

  Zone,
    ZONE WITH WALL1 WINDOW9, !- Name
    0,                       !- Direction of Relative North {deg}
    0,                       !- X Origin {m}
    0,                       !- Y Origin {m}
    0,                       !- Z Origin {m}
    1,                       !- Type
    1,                       !- Multiplier
    autocalculate,           !- Ceiling Height {m}
    autocalculate;           !- Volume {m3}

  Zone,
    ZONE WITH WALL1 WINDOWSC,!- Name
    0,                       !- Direction of Relative North {deg}
    0,                       !- X Origin {m}
    0,                       !- Y Origin {m}
    0,                       !- Z Origin {m}
    1,                       !- Type
    1,                       !- Multiplier
    autocalculate,           !- Ceiling Height {m}
    autocalculate;           !- Volume {m3}

  Zone,
    ZONE WITH WALL2 WINDOWSC,!- Name
    0,                       !- Direction of Relative North {deg}
    0,                       !- X Origin {m}
    0,                       !- Y Origin {m}
    0,                       !- Z Origin {m}
    1,                       !- Type
    1,                       !- Multiplier
    autocalculate,           !- Ceiling Height {m}
    autocalculate;           !- Volume {m3}

  Zone,
    ZONE WITH WALL3 WINDOWSC,!- Name
    0,                       !- Direction of Relative North {deg}
    0,                       !- X Origin {m}
    0,                       !- Y Origin {m}
    0,                       !- Z Origin {m}
    1,                       !- Type
    1,                       !- Multiplier
    autocalculate,           !- Ceiling Height {m}
    autocalculate;           !- Volume {m3}

  ScheduleTypeLimits,
    Fraction,                !- Name
    0.0,                     !- Lower Limit Value
    1.0,                     !- Upper Limit Value
    CONTINUOUS;              !- Numeric Type

  GlobalGeometryRules,
    UpperLeftCorner,         !- Starting Vertex Position
    CounterClockWise,        !- Vertex Entry Direction
    World;                   !- Coordinate System

  BuildingSurface:Detailed,
    Zn001:Wall001,           !- Name
    Wall,                    !- Surface Type
    EPWALL1,                 !- Construction Name
    ZONE WITH WALL1 WINDOW1, !- Zone Name
    Outdoors,                !- Outside Boundary Condition
    ,                        !- Outside Boundary Condition Object
    SunExposed,              !- Sun Exposure
    WindExposed,             !- Wind Exposure
    0.5000000,               !- View Factor to Ground
    4,                       !- Number of Vertices
    0,0,10.00000,  !- X,Y,Z ==> Vertex 1 {m}
    0,0,0,  !- X,Y,Z ==> Vertex 2 {m}
    10.00000,0,0,  !- X,Y,Z ==> Vertex 3 {m}
    10.00000,0,10.00000;  !- X,Y,Z ==> Vertex 4 {m}

  FenestrationSurface:Detailed,
    Zn001:Wall001:Win001,    !- Name
    Window,                  !- Surface Type
    EPWINDOW12,              !- Construction Name
    Zn001:Wall001,           !- Building Surface Name
    ,                        !- Outside Boundary Condition Object
    0.5000000,               !- View Factor to Ground
    ,                        !- Shading Control Name
    ,                        !- Frame and Divider Name
    1.0,                     !- Multiplier