!-Generator IDFEditor 1.34
!-Option OriginalOrderTop UseSpecialFormat
!-NOTE: All comments with '!-' are ignored by the IDFEditor and are generated automatically.
!-      Use '!' comments if they need to be retained when using the IDFEditor.
! _MicroCHPTest301.idf
!
! Run:      1 day long weather file run in Chicago, Illinois, USA
!
! Building: NO BUILDING . (this is a test file for Micro CHP Generator)
!           There is a thermal zone called garage
!           with considerable infiltration
!           that receives skin losses.
!
! Generator is controlled using 'Track schedule' electric use profile. (simple assumed profiles)
!
! System:   none, free floating garage
! Plant:    Plant loop connected to heat recovery portion of generator.
!           water temperatures and flow rates controlled using Pump schedules and water mains temperature
!
! File developed for Interprogram Comparative Test Case 301
!

  Version,8.5;

  Building,
    Test Harness for MicroCogen,  !- Name
    0,                       !- North Axis {deg}
    Suburbs,                 !- Terrain
    0.001,                   !- Loads Convergence Tolerance Value
    0.0050000,               !- Temperature Convergence Tolerance Value {deltaC}
    FullInteriorAndExterior, !- Solar Distribution
    25,                      !- Maximum Number of Warmup Days
    6;                       !- Minimum Number of Warmup Days

  RunPeriod,
    ,                        !- Name
    1,                       !- Begin Month
    9,                       !- Begin Day of Month
    1,                       !- End Month
    9,                       !- End Day of Month
    SUNDAY,                  !- Day of Week for Start Day
    NO,                      !- Use Weather File Holidays and Special Days
    NO,                      !- Use Weather File Daylight Saving Period
    NO,                      !- Apply Weekend Holiday Rule
    NO,                      !- Use Weather File Rain Indicators
    NO,                      !- Use Weather File Snow Indicators
    1;                       !- Number of Times Runperiod to be Repeated

  Timestep,6;

  Site:Location,
    CHICAGO_OHARE_INTL_IL_USA Design_Conditions,  !- Name
    41.98000,                !- Latitude {deg}
    -87.90000,               !- Longitude {deg}
    -6.000000,               !- Time Zone {hr}
    201.0000;                !- Elevation {m}

  SimulationControl,
    No,                      !- Do Zone Sizing Calculation
    No,                      !- Do System Sizing Calculation
    No,                      !- Do Plant Sizing Calculation
    No,                      !- Run Simulation for Sizing Periods
    Yes;                     !- Run Simulation for Weather File Run Periods

! CHICAGO_IL_USA Annual Heating 99% Design Conditions DB, MaxDB= -17.3°C

  SizingPeriod:DesignDay,
    CHICAGO_IL_USA Annual Heating 99% Design Conditions DB,  !- Name
    1,                       !- Month
    21,                      !- Day of Month
    WinterDesignDay,         !- Day Type
    -17.3,                   !- Maximum Dry-Bulb Temperature {C}
    0.0,                     !- Daily Dry-Bulb Temperature Range {deltaC}
    ,                        !- Dry-Bulb Temperature Range Modifier Type
    ,                        !- Dry-Bulb Temperature Range Modifier Day Schedule Name
    Wetbulb,                 !- Humidity Condition Type
    -17.3,                   !- Wetbulb or DewPoint at Maximum Dry-Bulb {C}
    ,                        !- Humidity Condition Day Schedule Name
    ,                        !- Humidity Ratio at Maximum Dry-Bulb {kgWater/kgDryAir}
    ,                        !- Enthalpy at Maximum Dry-Bulb {J/kg}
    ,                        !- Daily Wet-Bulb Temperature Range {deltaC}
    99063.,                  !- Barometric Pressure {Pa}
    4.9,                     !- Wind Speed {m/s}
    270,                     !- Wind Direction {deg}
    No,                      !- Rain Indicator
    No,                      !- Snow Indicator
    No,                      !- Daylight Saving Time Indicator
    ASHRAEClearSky,          !- Solar Model Indicator
    ,                        !- Beam Solar Day Schedule Name
    ,                        !- Diffuse Solar Day Schedule Name
    ,                        !- ASHRAE Clear Sky Optical Depth for Beam Irradiance (taub) {dimensionless}
    ,                        !- ASHRAE Clear Sky Optical Depth for Diffuse Irradiance (taud) {dimensionless}
    0.0;                     !- Sky Clearness

! CHICAGO_IL_USA Annual Cooling 1% Design Conditions, MaxDB=  31.5°C MCWB=  23.0°C

  SizingPeriod:DesignDay,
    CHICAGO_IL_USA Annual Cooling 1% Design Conditions DB/MCWB,  !- Name
    7,                       !- Month
    21,                      !- Day of Month
    SummerDesignDay,         !- Day Type
    31.5,                    !- Maximum Dry-Bulb Temperature {C}
    10.7,                    !- Daily Dry-Bulb Temperature Range {deltaC}
    ,                        !- Dry-Bulb Temperature Range Modifier Type
    ,                        !- Dry-Bulb Temperature Range Modifier Day Schedule Name
    Wetbulb,                 !- Humidity Condition Type
    23.0,                    !- Wetbulb or DewPoint at Maximum Dry-Bulb {C}
    ,                        !- Humidity Condition Day Schedule Name
    ,                        !- Humidity Ratio at Maximum Dry-Bulb {kgWater/kgDryAir}
    ,                        !- Enthalpy at Maximum Dry-Bulb {J/kg}
    ,                        !- Daily Wet-Bulb Temperature Range {deltaC}
    99063.,                  !- Barometric Pressure {Pa}
    5.3,                     !- Wind Speed {m/s}
    230,                     !- Wind Direction {deg}
    No,                      !- Rain Indicator
    No,                      !- Snow Indicator
    No,                      !- Daylight Saving Time Indicator
    ASHRAEClearSky,          !- Solar Model Indicator
    ,                        !- Beam Solar Day Schedule Name
    ,                        !- Diffuse Solar Day Schedule Name
    ,                        !- ASHRAE Clear Sky Optical Depth for Beam Irradiance (taub) {dimensionless}
    ,                        !- ASHRAE Clear Sky Optical Depth for Diffuse Irradiance (taud) {dimensionless}
    1.0;                     !- Sky Clearness

  Material,
    A1 - 1 IN STUCCO,        !- Name
    Smooth,                  !- Roughness
    2.5389841E-02,           !- Thickness {m}
    0.6918309,               !- Conductivity {W/m-K}
    1858.142,                !- Density {kg/m3}
    836.8000,                !- Specific Heat {J/kg-K}
    0.9000000,               !- Thermal Absorptance
    0.9200000,               !- Solar Absorptance
    0.9200000;               !- Visible Absorptance

! CC Blk 8 in HW Hol.

  Material,
    CB11,                    !- Name
    MediumRough,             !- Roughness
    0.2032000,               !- Thickness {m}
    1.048000,                !- Conductivity {W/m-K}
    1105.000,                !- Density {kg/m3}
    837.0000,                !- Specific Heat {J/kg-K}
    0.9000000,               !- Thermal Absorptance
    0.2000000,               !- Solar Absorptance
    0.2000000;               !- Visible Absorptance

  Construction,
    EXTWALL:GARAGE,          !- Name
    A1 - 1 IN STUCCO,        !- Outside Layer
    CB11;                    !- Layer 2

  Zone,
    GARAGE ZONE,             !- Name
    0.0,                     !- Direction of Relative North {deg}
    0.0,                     !- X Origin {m}
    0.0,                     !- Y Origin {m}
    0.0,                     !- Z Origin {m}
    1,                       !- Type
    1,                       !- Multiplier
    4.0,                     !- Ceiling Height {m}
    50.00;                   !- Volume {m3}

  ZoneControl:Thermostat,
    Garage Zone Thermostat,  !- Name
    GARAGE ZONE,             !- Zone or ZoneList Name
    Zone Control Type Sched, !- Control Type Schedule Name
    ThermostatSetpoint:DualSetpoint,  !- Control 1 Object Type
    Tight setpoint;          !- Control 1 Name

  ThermostatSetpoint:DualSetpoint,
    Tight setpoint,          !- Name
    Dual setpointlower,      !- Heating Setpoint Temperature Schedule Name
    Dual setpointUpper;      !- Cooling Setpoint Temperature Schedule Name

  Schedule:Compact,
    Dual setpointlower,      !- Name
    Temperature,             !- Schedule Type Limits Name
    Through: 12/31,          !- Field 1
    For: AllDays,            !- Field 2
    Until: 24:00,19.99;      !- Field 3

  Schedule:Compact,
    Dual setpointUpper,      !- Name
    Temperature,             !- Schedule Type Limits Name
    Through: 12/31,          !- Field 1
    For: AllDays,            !- Field 2
    Until: 24:00,20.01;      !- Field 3

  Schedule:Compact,
    Zone Control Type Sched, !- Name
    Control Type,            !- Schedule Type Limits Name
    Through: 12/31,          !- Field 1
    For: AllDays,            !- Field 2
    Until: 24:00,4;          !- Field 3

  ZoneHVAC:EquipmentConnections,
    GARAGE ZONE,             !- Zone Name
    Zone1Equipment,          !- Zone Conditioning Equipment List Name
    Garage inlet,            !- Zone Air Inlet Node or NodeList Name
    Micro CHP Air Inlet Node,!- Zone Air Exhaust Node or NodeList Name
    Garage Air Node,         !- Zone Air Node Name
    Garage return;           !- Zone Return Air Node Name

  ZoneHVAC:EquipmentList,
    Zone1Equipment,          !- Name
    ZoneHVAC:IdealLoadsAirSystem,  !- Zone Equipment 1 Object Type
    Zone1Air,                !- Zone Equipment 1 Name
    1,                       !- Zone Equipment 1 Cooling Sequence
    1;                       !- Zone Equipment 1 Heating or No-Load Sequence

  ZoneHVAC:IdealLoadsAirSystem,
    Zone1Air,                !- Name
    ,                        !- Availability Schedule Name
    Garage inlet,            !- Zone Supply Air Node Name
    ,                        !- Zone Exhaust Air Node Name
    50,                      !- Maximum Heating Supply Air Temperature {C}
    13,                      !- Minimum Cooling Supply Air Temperature {C}
    0.0085,                  !- Maximum Heating Supply Air Humidity Ratio {kgWater/kgDryAir}
    0.0085,                  !- Minimum Cooling Supply Air Humidity Ratio {kgWater/kgDryAir}
    NoLimit,                 !- Heating Limit
    2.0,                     !- Maximum Heating Air Flow Rate {m3/s}
    ,                        !- Maximum Sensible Heating Capacity {W}
    NoLimit,                 !- Cooling Limit
    2.0,                     !- Maximum Cooling Air Flow Rate {m3/s}
    ,                        !- Maximum Total Cooling Capacity {W}
    ,                        !- Heating Availability Schedule Name
    ,                        !- Cooling Availability Schedule Name
    ConstantSupplyHumidityRatio,  !- Dehumidification Control Type
    ,                        !- Cooling Sensible Heat Ratio {dimensionless}
    ConstantSupplyHumidityRatio,  !- Humidification Control Type
    ,                        !- Design Specification Outdoor Air Object Name
    ,                        !- Outdoor Air Inlet Node Name
    ,                        !- Demand Controlled Ventilation Type
    ,                        !- Outdoor Air Economizer Type
    ,                        !- Heat Recovery Type
    ,                        !- Sensible Heat Recovery Effectiveness {dimensionless}
    ;                        !- Latent Heat Recovery Effectiveness {dimensionless}

  GlobalGeometryRules,
    UpperLeftCorner,         !- Starting Vertex Position
    CounterClockWise,        !- Vertex Entry Direction
    World;                   !- Coordinate System

  BuildingSurface:Detailed,
    Garage:EastWall,         !- Name
    WALL,                    !- Surface Type
    EXTWALL:GARAGE,          !- Construction Name
    GARAGE ZONE,             !- Zone Name
    Outdoors,                !- Outside Boundary Condition
    ,                        !- Outside Boundary Condition Object
    SunExposed,              !- Sun Exposure
    WindExposed,             !- Wind Exposure
    0.5,                     !- View Factor to Ground
    4,                       !- Number of Vertices
    17.242,10.778,2.4384,  !- X,Y,Z ==> Vertex 1 {m}
    17.242,10.778,0,  !- X,Y,Z ==> Vertex 2 {m}
    17.242,16.876,0,  !- X,Y,Z ==> Vertex 3 {m}
    17.242,16.876,2.4384;  !- X,Y,Z ==> Vertex 4 {m}

  ZoneInfiltration:DesignFlowRate,
    GARAGE ZONE,             !- Name
    GARAGE ZONE,             !- Zone or ZoneList Name
    INF-SCHED,               !- Schedule Name
    flow/zone,               !- Design Flow Rate Calculation Method
    0.1,                     !- Design Flow Rate {m3/s}
    ,                        !- Flow per Zone Floor Area {m3/s-m2}
    ,                        !- Flow per Exterior Surface Area {m3/s-m2}
    ,                        !- Air Changes per Hour {1/hr}
    1,                       !- Constant Term Coefficient
    0,                       !- Temperature Term Coefficient
    0,                       !- Velocity Term Coefficient
    0;                       !- Velocity Squared Term Coefficient

  Schedule:Compact,
    INF-SCHED,               !- Name
    Fraction,                !- Schedule Type Limits Name
    THROUGH: 12/31,          !- Field 1
    FOR: AllDays,            !- Field 2
    UNTIL: 24:00,1.0;        !- Field 3

  ScheduleTypeLimits,
    Any Number;              !- Name

  ScheduleTypeLimits,
    Fraction,                !- Name
    0.0,                     !- Lower Limit Value
    1.0,                     !- Upper Limit Value
    CONTINUOUS;              !- Numeric Type

  ScheduleTypeLimits,
    Temperature,             !- Name
    -60,                     !- Lower Limit Value
    200,                     !- Upper Limit Value
    CONTINUOUS,              !- Numeric Type
    Temperature;             !- Unit Type

  ScheduleTypeLimits,
    Control Type,            !- Name
    0,                       !- Lower Limit Value
    4,                       !- Upper Limit Value
    DISCRETE;                !- Numeric Type

  ScheduleTypeLimits,
    On/Off,                  !- Name
    0,                       !- Lower Limit Value
    1,                       !- Upper Limit Value
    DISCRETE;                !- Numeric Type

  Schedule:Compact,
    Always_ON,               !- Name
    Any Number,              !- Schedule Type Limits Name
    THROUGH: 12/31,          !- Field 1
    FOR: AllDays,            !- Field 2
    UNTIL: 24:00,1.0;        !- Field 3

  Schedule:Compact,
    Electric Load Profile Sched,  !- Name
    Any Number,              !- Schedule Type Limits Name
    THROUGH: 12/31,          !- Field 1
    FOR: AllDays,            !- Field 2
    UNTIL:  1:00,0,          !- Field 3
    UNTIL:  3:00,1000.0,     !- Field 5
    UNTIL: 24:00,0.00;       !- Field 7

  Schedule:Compact,
    Generator Availability Sched,  !- Name
    Fraction,                !- Schedule Type Limits Name
    THROUGH: 12/31,          !- Field 1
    FOR: AllDays,            !- Field 2
    UNTIL:  1:00,0.0,        !- Field 3
    UNTIL: 3:00,1.0,         !- Field 5
    UNTIL: 24:00,0.0;        !- Field 7

  ElectricLoadCenter:Distribution,
    Electric Load Center,    !- Name
    Micro-Generators,        !- Generator List Name
    TrackSchedule,           !- Generator Operation Scheme Type
    0.0,                     !- Demand Limit Scheme Purchased Electric Demand Limit {W}
    Electric Load Profile Sched,  !- Track Schedule Name Scheme Schedule Name
    ,                        !- Track Meter Scheme Meter Name
    AlternatingCurrent;      !- Electrical Buss Type

  ElectricLoadCenter:Generators,
    Micro-Generators,        !- Name
    Gen 1,                   !- Generator 1 Name
    Generator:MicroCHP,      !- Generator 1 Object Type
    3400,                    !- Generator 1 Rated Electric Power Output {W}
    Always_ON,               !- Generator 1 Availability Schedule Name
    ;                        !- Generator 1 Rated Thermal to Electrical Power Ratio

  Generator:MicroCHP,
    Gen 1,                   !- Name
    Test Microcogen Params,  !- Performance Parameters Name
    GARAGE ZONE,             !- Zone Name
    Micro CHP Heat Rec Inlet Node,  !- Cooling Water Inlet Node Name
    Micro CHP Heat Rec Outlet Node,  !- Cooling Water Outlet Node Name
    Micro CHP Air Inlet Node,!- Air Inlet Node Name
    ,                        !- Air Outlet Node Name
    Test Fuel Supply,        !- Generator Fuel Supply Name
    Generator Availability Sched;  !- Availability Schedule Name

  Generator:MicroCHP:NonNormalizedParameters,
    Test Microcogen Params,  !- Name
    1000.0,                  !- Maximum Electric Power {W}
    0.0,                     !- Minimum Electric Power {W}
    0.0,                     !- Minimum Cooling Water Flow Rate {kg/s}
    100.0,                   !- Maximum Cooling Water Temperature {C}
    Electrical Efficiency Curve,  !- Electrical Efficiency Curve Name
    Thermal Efficiency Curve,!- Thermal Efficiency Curve Name
    PlantControl,            !- Cooling Water Flow Rate Mode
    Cooling water flow rate, !- Cooling Water Flow Rate Curve Name
    Combustion Air Flow,     !- Air Flow Rate Curve Name
    1.0E09,                  !- Maximum Net Electrical Power Rate of Change {W/s}
    1.0E09,                  !- Maximum Fuel Flow Rate of Change {kg/s2}
    50.0,                    !- Heat Exchanger U-Factor Times Area Value {W/K}
    0.0,                     !- Skin Loss U-Factor Times Area Value {W/K}
    0.5,                     !- Skin Loss Radiative Fraction
    20.0E03,                 !- Aggregated Thermal Mass of Energy Conversion Portion of Generator {W/K}
    20.0E03,                 !- Aggregated Thermal Mass of Heat Recovery Portion of Generator {W/K}
    0.0,                     !- Standby Power {W}
    TimeDelay,               !- Warm Up Mode
    1.0,                     !- Warm Up Fuel Flow Rate Coefficient
    150.0,                   !- Nominal Engine Operating Temperature {C}
    1.0,                     !- Warm Up Power Coefficient
    10.0,                    !- Warm Up Fuel Flow Rate Limit Ratio
    0.0,                     !- Warm Up Delay Time {s}
    0.0,                     !- Cool Down Power {W}
    0.0,                     !- Cool Down Delay Time {s}
    MandatoryCoolDown;       !- Restart Mode

! sets of input data on each constituent

  Generator:FuelSupply,
    Test Fuel Supply,        !- Name
    TemperatureFromAirNode,  !- Fuel Temperature Modeling Mode
    Micro CHP Air Inlet Node,!- Fuel Temperature Reference Node Name
    ,                        !- Fuel Temperature Schedule Name
    NullCubic,               !- Compressor Power Function of Fuel Rate Curve Name
    1.0,                     !- Compressor Heat Loss Factor
    GaseousConstituents,     !- Fuel Type
    ,                        !- Liquid Generic Fuel Lower Heating Value {kJ/kg}
    ,                        !- Liquid Generic Fuel Higher Heating Value {kJ/kg}
    ,                        !- Liquid Generic Fuel Molecular Weight {g/mol}
    ,                        !- Liquid Generic Fuel CO2 Emission Factor
    1,                       !- Number of Constituents in Gaseous Constituent Fuel Supply
    Methane,                 !- Constituent 1 Name
    1.0;                     !- Constituent 1 Molar Fraction

  Curve:Cubic,
    NullCubic,               !- Name
    0.0,                     !- Coefficient1 Constant
    0.0,                     !- Coefficient2 x
    0.0,                     !- Coefficient3 x**2
    0.0,                     !- Coefficient4 x**3
    0.0,                     !- Minimum Value of x
    0.0;                     !- Maximum Value of x

  Curve:Triquadratic,
    Electrical Efficiency Curve,  !- Name
    0.25,                    !- Coefficient1 Constant
    0.0,                     !- Coefficient2 x**2
    0.0,                     !- Coefficient3 x
    0.0,                     !- Coefficient4 y**2
    0.0,                     !- Coefficient5 y
    0.0,                     !- Coefficient6 z**2
    0.0,                     !- Coefficient7 z
    0.0,                     !- Coefficient8 x**2*y**2
    0.0,                     !- Coefficient9 x*y
    0.0,                     !- Coefficient10 x*y**2
    0.0,                     !- Coefficient11 x**2*y
    0.0,                     !- Coefficient12 x**2*z**2
    0.0,                     !- Coefficient13 x*z
    0.0,                     !- Coefficient14 x*z**2
    0.0,                     !- Coefficient15 x**2*z
    0.0,                     !- Coefficient16 y**2*z**2
    0.0,                     !- Coefficient17 y*z
    0.0,                     !- Coefficient18 y*z**2
    0.0,                     !- Coefficient19 y**2*z
    0.0,                     !- Coefficient20 x**2*y**2*z**2
    0.0,                     !- Coefficient21 x**2*y**2*z
    0.0,                     !- Coefficient22 x**2*y*z**2
    0.0,                     !- Coefficient23 x*y**2*z**2
    0.0,                     !- Coefficient24 x**2*y*z
    0.0,                     !- Coefficient25 x*y**2*z
    0.0,                     !- Coefficient26 x*y*z**2
    0.0,                     !- Coefficient27 x*y*z
    0.0,                     !- Minimum Value of x
    1.0E09,                  !- Maximum Value of x
    0.0,                     !- Minimum Value of y
    1.0E09,                  !- Maximum Value of y
    0.0,                     !- Minimum Value of z
    1.0E09;                  !- Maximum Value of z

  Curve:Triquadratic,
    Thermal Efficiency Curve,!- Name
    0.50,                    !- Coefficient1 Constant
    0.0,                     !- Coefficient2 x**2
    0.0,                     !- Coefficient3 x
    0.0,                     !- Coefficient4 y**2
    0.0,                     !- Coefficient5 y
    0.0,                     !- Coefficient6 z**2
    0.0,                     !- Coefficient7 z
    0.0,                     !- Coefficient8 x**2*y**2
    0.0,                     !- Coefficient9 x*y
    0.0,                     !- Coefficient10 x*y**2
    0.0,                     !- Coefficient11 x**2*y
    0.0,                     !- Coefficient12 x**2*z**2
    0.0,                     !- Coefficient13 x*z
    0.0,                     !- Coefficient14 x*z**2
    0.0,                     !- Coefficient15 x**2*z
    0.0,                     !- Coefficient16 y**2*z**2
    0.0,                     !- Coefficient17 y*z
    0.0,                     !- Coefficient18 y*z**2
    0.0,                     !- Coefficient19 y**2*z
    0.0,                     !- Coefficient20 x**2*y**2*z**2
    0.0,                     !- Coefficient21 x**2*y**2*z
    0.0,                     !- Coefficient22 x**2*y*z**2
    0.0,                     !- Coefficient23 x*y**2*z**2
    0.0,                     !- Coefficient24 x**2*y*z
    0.0,                     !- Coefficient25 x*y**2*z
    0.0,                     !- Coefficient26 x*y*z**2
    0.0,                     !- Coefficient27 x*y*z
    0.0,                     !- Minimum Value of x
    1.0E09,                  !- Maximum Value of x
    0.0,                     !- Minimum Value of y
    1.0E09,                  !- Maximum Value of y
    0.0,                     !- Minimum Value of z
    1.0E09;                  !- Maximum Value of z

  Curve:Biquadratic,
    Cooling water flow rate, !- Name
    0.0,                     !- Coefficient1 Constant
    0.0,                     !- Coefficient2 x
    0.0,                     !- Coefficient3 x**2
    0.0,                     !- Coefficient4 y
    0.0,                     !- Coefficient5 y**2
    0.0,                     !- Coefficient6 x*y
    0.0,                     !- Minimum Value of x
    1.0E12,                  !- Maximum Value of x
    0.0,                     !- Minimum Value of y
    1.0E12;                  !- Maximum Value of y

  Curve:Quadratic,
    Combustion Air Flow,     !- Name
    15.0E-06,                !- Coefficient1 Constant
    2.0,                     !- Coefficient2 x
    -10.0E03,                !- Coefficient3 x**2
    0.0,                     !- Minimum Value of x
    1.0E12;                  !- Maximum Value of x

  Site:WaterMainsTemperature,
    Schedule,                !- Calculation Method
    HOT WATER SETPOINTs Annex42 ICE_SE,  !- Temperature Schedule Name
    9.69,                    !- Annual Average Outdoor Air Temperature {C}
    28.1;                    !- Maximum Difference In Monthly Average Outdoor Air Temperatures {deltaC}

  Schedule:Compact,
    HOT WATER SETPOINTs Annex42 ICE_SE,  !- Name
    Temperature,             !- Schedule Type Limits Name
    THROUGH: 12/31,          !- Field 1
    FOR: AllDays,            !- Field 2
    UNTIL: 24:00,25.0;       !- Field 3

  PlantLoop,
    Heat Recovery Water Loop,!- Name
    Water,                   !- Fluid Type
    ,                        !- User Defined Fluid Type
    Recovery Loop Operation, !- Plant Equipment Operation Scheme Name
    Heat Recovery Supply Outlet Node,  !- Loop Temperature Setpoint Node Name
    98,                      !- Maximum Loop Temperature {C}
    10,                      !- Minimum Loop Temperature {C}
    1.50E-04,                !- Maximum Loop Flow Rate {m3/s}
    0.00,                    !- Minimum Loop Flow Rate {m3/s}
    autocalculate,           !- Plant Loop Volume {m3}
    Heat Recovery Supply Inlet Node,  !- Plant Side Inlet Node Name
    Heat Recovery Supply Outlet Node,  !- Plant Side Outlet Node Name
    Heat Recovery Supply Side Branches,  !- Plant Side Branch List Name
    ,                        !- Plant Side Connector List Name
    Heat Recovery Demand Inlet Node,  !- Demand Side Inlet Node Name
    Heat Recovery Demand Outlet Node,  !- Demand Side Outlet Node Name
    Heat Recovery Demand Side Branches,  !- Demand Side Branch List Name
    ,                        !- Demand Side Connector List Name
    Optimal;                 !- Load Distribution Scheme

  PlantEquipmentOperationSchemes,
    Recovery Loop Operation, !- Name
    PlantEquipmentOperation:Uncontrolled,  !- Control Scheme 1 Object Type
    CHP test,                !- Control Scheme 1 Name
    Always_ON;               !- Control Scheme 1 Schedule Name

  PlantEquipmentOperation:Uncontrolled,
    CHP test,                !- Name
    CHP plant;               !- Equipment List Name

  PlantEquipmentList,
    CHP plant,               !- Name
    Generator:MicroCHP,      !- Equipment 1 Object Type
    Gen 1;                   !- Equipment 1 Name

!may need to add CHP device to equipment list here

  SetpointManager:Scheduled,
    Heat Recovery Water Loop Setpoint Manager,  !- Name
    Temperature,             !- Control Variable
    HOT WATER SETPOINTs Annex42 ICE_SE,  !- Schedule Name
    Heat Recovery Water Loop Setpoint Node List;  !- Setpoint Node or NodeList Name

  NodeList,
    Heat Recovery Water Loop Setpoint Node List,  !- Name
    Heat Recovery Supply Outlet Node;  !- Node 1 Name

  BranchList,
    Heat Recovery Supply Side Branches,  !- Name
    Heat Recovery Supply Branch;  !- Branch 1 Name

  Branch,
    Heat Recovery Supply Branch,  !- Name
    1.50E-04,                !- Maximum Flow Rate {m3/s}
    ,                        !- Pressure Drop Curve Name
    Pump:ConstantSpeed,      !- Component 1 Object Type
    Heat Recovery Circ Pump, !- Component 1 Name
    Heat Recovery Supply Inlet Node,  !- Component 1 Inlet Node Name
    Micro CHP Heat Rec Inlet Node,  !- Component 1 Outlet Node Name
    ACTIVE,                  !- Component 1 Branch Control Type
    Generator:MicroCHP,      !- Component 2 Object Type
    Gen 1,                   !- Component 2 Name
    Micro CHP Heat Rec Inlet Node,  !- Component 2 Inlet Node Name
    Micro CHP Heat Rec Outlet Node,  !- Component 2 Outlet Node Name
    PASSIVE,                 !- Component 2 Branch Control Type
    Pipe:Adiabatic,          !- Component 3 Object Type
    Heat Recovery Supply Outlet,  !- Component 3 Name
    Micro CHP Heat Rec Outlet Node,  !- Component 3 Inlet Node Name
    Heat Recovery Supply Outlet Node,  !- Component 3 Outlet Node Name
    PASSIVE;                 !- Component 3 Branch Control Type

  Pump:ConstantSpeed,
    Heat Recovery Circ Pump, !- Name
    Heat Recovery Supply Inlet Node,  !- Inlet Node Name
    Micro CHP Heat Rec Inlet Node,  !- Outlet Node Name
    1.50E-04,                !- Rated Flow Rate {m3/s}
    50000,                   !- Rated Pump Head {Pa}
    0.0,                     !- Rated Power Consumption {W}
    0.87,                    !- Motor Efficiency
    0.0,                     !- Fraction of Motor Inefficiencies to Fluid Stream
    Continuous,              !- Pump Control Type
    ;                        !- Pump Flow Rate Schedule Name

  Pipe:Adiabatic,
    Heat Recovery Supply Outlet,  !- Name
    Micro CHP Heat Rec Outlet Node,  !- Inlet Node Name
    Heat Recovery Supply Outlet Node;  !- Outlet Node Name

!Demand side

  BranchList,
    Heat Recovery Demand Side Branches,  !- Name
    Heat Recovery Demand Branch;  !- Branch 1 Name

  Branch,
    Heat Recovery Demand Branch,  !- Name
    ,                        !- Maximum Flow Rate {m3/s}
    ,                        !- Pressure Drop Curve Name
    Pipe:Adiabatic,          !- Component 1 Object Type
    Heat Recovery Inlet Pipe,!- Component 1 Name
    Heat Recovery Demand Inlet Node,  !- Component 1 Inlet Node Name
    Heat Recovery Demand Drain Node,  !- Component 1 Outlet Node Name
    PASSIVE,                 !- Component 1 Branch Control Type
    WaterUse:Connections,    !- Component 2 Object Type
    Heat Recovery Drain,     !- Component 2 Name
    Heat Recovery Demand Drain Node,  !- Component 2 Inlet Node Name
    Heat Recovery Demand Outlet Node,  !- Component 2 Outlet Node Name
    ACTIVE;                  !- Component 2 Branch Control Type

  Pipe:Adiabatic,
    Heat Recovery Inlet Pipe,!- Name