!-Generator IDFEditor 1.54
!-Option SortedOrder

!-NOTE: All comments with '!-' are ignored by the IDFEditor and are generated automatically.
!-      Use '!' comments if they need to be retained when using the IDFEditor.


!-   ===========  ALL OBJECTS IN CLASS: VERSION ===========

Version,
    24.2;                    !- Version Identifier


!-   ===========  ALL OBJECTS IN CLASS: SIMULATIONCONTROL ===========

SimulationControl,
    No,                      !- Do Zone Sizing Calculation
    No,                      !- Do System Sizing Calculation
    No,                      !- Do Plant Sizing Calculation
    Yes,                     !- Run Simulation for Sizing Periods
    No,                      !- Run Simulation for Weather File Run Periods
    ,                        !- Do HVAC Sizing Simulation for Sizing Periods
    ;                        !- Maximum Number of HVAC Sizing Simulation Passes


!-   ===========  ALL OBJECTS IN CLASS: PERFORMANCEPRECISIONTRADEOFFS ===========

PerformancePrecisionTradeoffs,
    No,                      !- Use Coil Direct Solutions
    CarrollMRT,              !- Zone Radiant Exchange Algorithm
    ,                        !- Override Mode
    ,                        !- MaxZoneTempDiff
    ,                        !- MaxAllowedDelTemp
    No;                      !- Use Representative Surfaces for Calculations


!-   ===========  ALL OBJECTS IN CLASS: BUILDING ===========

Building,
    Building 1,              !- Name
    ,                        !- North Axis {deg}
    Suburbs,                 !- Terrain
    ,                        !- Loads Convergence Tolerance Value {W}
    ,                        !- Temperature Convergence Tolerance Value {deltaC}
    ,                        !- Solar Distribution
    ,                        !- Maximum Number of Warmup Days
    ;                        !- Minimum Number of Warmup Days


!-   ===========  ALL OBJECTS IN CLASS: SHADOWCALCULATION ===========

ShadowCalculation,
    PolygonClipping,         !- Shading Calculation Method
    Periodic,                !- Shading Calculation Update Frequency Method
    20,                      !- Shading Calculation Update Frequency
    200,                     !- Maximum Figures in Shadow Overlap Calculations
    SutherlandHodgman,       !- Polygon Clipping Algorithm
    512,                     !- Pixel Counting Resolution
    SimpleSkyDiffuseModeling,!- Sky Diffuse Modeling Algorithm
    No,                      !- Output External Shading Calculation Results
    No,                      !- Disable Self-Shading Within Shading Zone Groups
    No;                      !- Disable Self-Shading From Shading Zone Groups to Other Zones


!-   ===========  ALL OBJECTS IN CLASS: SURFACECONVECTIONALGORITHM:INSIDE ===========

SurfaceConvectionAlgorithm:Inside,
    TARP;                    !- Algorithm


!-   ===========  ALL OBJECTS IN CLASS: SURFACECONVECTIONALGORITHM:OUTSIDE ===========

SurfaceConvectionAlgorithm:Outside,
    DOE-2;                   !- Algorithm


!-   ===========  ALL OBJECTS IN CLASS: ZONECAPACITANCEMULTIPLIER:RESEARCHSPECIAL ===========

ZoneCapacitanceMultiplier:ResearchSpecial,
    Zone Capacitance Multiplier Research Special,  !- Name
    ,                        !- Zone or ZoneList Name
    7,                       !- Temperature Capacity Multiplier
    15,                      !- Humidity Capacity Multiplier
    ,                        !- Carbon Dioxide Capacity Multiplier
    ;                        !- Generic Contaminant Capacity Multiplier


!-   ===========  ALL OBJECTS IN CLASS: TIMESTEP ===========

Timestep,
    1;                       !- Number of Timesteps per Hour


!-   ===========  ALL OBJECTS IN CLASS: CONVERGENCELIMITS ===========

ConvergenceLimits,
    0;                       !- Minimum System Timestep {minutes}


!-   ===========  ALL OBJECTS IN CLASS: SITE:LOCATION ===========

  Site:Location,
    Denver-Aurora-Buckley.AFB_CO_USA WMO=724695,  !- Name
    39.72,                   !- Latitude {deg}
    -104.75,                 !- Longitude {deg}
    -7.00,                   !- Time Zone {hr}
    1726.00;                 !- Elevation {m}

!-   ===========  ALL OBJECTS IN CLASS: SIZINGPERIOD:DESIGNDAY ===========

  SizingPeriod:DesignDay,
    Denver-Aurora-Buckley.AFB_CO_USA Ann Htg 99.6% Condns DB,  !- Name
    12,                      !- Month
    21,                      !- Day of Month
    WinterDesignDay,         !- Day Type
    -17.9,                   !- Maximum Dry-Bulb Temperature {C}
    0.0,                     !- Daily Dry-Bulb Temperature Range {deltaC}
    DefaultMultipliers,      !- Dry-Bulb Temperature Range Modifier Type
    ,                        !- Dry-Bulb Temperature Range Modifier Day Schedule Name
    Wetbulb,                 !- Humidity Condition Type
    -17.9,                   !- Wetbulb or DewPoint at Maximum Dry-Bulb {C}
    ,                        !- Humidity Condition Day Schedule Name
    ,                        !- Humidity Ratio at Maximum Dry-Bulb {kgWater/kgDryAir}
    ,                        !- Enthalpy at Maximum Dry-Bulb {J/kg}
    ,                        !- Daily Wet-Bulb Temperature Range {deltaC}
    82237.,                  !- Barometric Pressure {Pa}
    2.5,                     !- Wind Speed {m/s}
    180,                     !- Wind Direction {deg}
    No,                      !- Rain Indicator
    No,                      !- Snow Indicator
    No,                      !- Daylight Saving Time Indicator
    ASHRAEClearSky,          !- Solar Model Indicator
    ,                        !- Beam Solar Day Schedule Name
    ,                        !- Diffuse Solar Day Schedule Name
    ,                        !- ASHRAE Clear Sky Optical Depth for Beam Irradiance (taub) {dimensionless}
    ,                        !- ASHRAE Clear Sky Optical Depth for Diffuse Irradiance (taud) {dimensionless}
    0.00;                    !- Sky Clearness

  SizingPeriod:DesignDay,
    Denver-Aurora-Buckley.AFB_CO_USA Ann Clg .4% Condns DB=>MWB,  !- Name
    7,                       !- Month
    21,                      !- Day of Month
    SummerDesignDay,         !- Day Type
    33.9,                    !- Maximum Dry-Bulb Temperature {C}
    14.8,                    !- Daily Dry-Bulb Temperature Range {deltaC}
    DefaultMultipliers,      !- Dry-Bulb Temperature Range Modifier Type
    ,                        !- Dry-Bulb Temperature Range Modifier Day Schedule Name
    Wetbulb,                 !- Humidity Condition Type
    15,                      !- Wetbulb or DewPoint at Maximum Dry-Bulb {C}
    ,                        !- Humidity Condition Day Schedule Name
    ,                        !- Humidity Ratio at Maximum Dry-Bulb {kgWater/kgDryAir}
    ,                        !- Enthalpy at Maximum Dry-Bulb {J/kg}
    ,                        !- Daily Wet-Bulb Temperature Range {deltaC}
    82237.,                  !- Barometric Pressure {Pa}
    3.6,                     !- Wind Speed {m/s}
    30,                      !- Wind Direction {deg}
    No,                      !- Rain Indicator
    No,                      !- Snow Indicator
    No,                      !- Daylight Saving Time Indicator
    ASHRAETau,               !- Solar Model Indicator
    ,                        !- Beam Solar Day Schedule Name
    ,                        !- Diffuse Solar Day Schedule Name
    0.423,                   !- ASHRAE Clear Sky Optical Depth for Beam Irradiance (taub) {dimensionless}
    2.020;                   !- ASHRAE Clear Sky Optical Depth for Diffuse Irradiance (taud) {dimensionless}

!-   ===========  ALL OBJECTS IN CLASS: RUNPERIOD ===========

RunPeriod,
    Run Period 1,            !- Name
    1,                       !- Begin Month
    1,                       !- Begin Day of Month
    2007,                    !- Begin Year
    12,                      !- End Month
    31,                      !- End Day of Month
    2007,                    !- End Year
    Monday,                  !- Day of Week for Start Day
    No,                      !- Use Weather File Holidays and Special Days
    No,                      !- Use Weather File Daylight Saving Period
    No,                      !- Apply Weekend Holiday Rule
    Yes,                     !- Use Weather File Rain Indicators
    Yes;                     !- Use Weather File Snow Indicators


!-   ===========  ALL OBJECTS IN CLASS: RUNPERIODCONTROL:DAYLIGHTSAVINGTIME ===========

RunPeriodControl:DaylightSavingTime,
    Mar 12,                  !- Start Date
    Nov 5;                   !- End Date


!-   ===========  ALL OBJECTS IN CLASS: SITE:GROUNDTEMPERATURE:SHALLOW ===========

Site:GroundTemperature:Shallow,
    6.71281269969534,        !- January Surface Ground Temperature {C}
    4.94206058328811,        !- February Surface Ground Temperature {C}
    4.80025240351135,        !- March Surface Ground Temperature {C}
    5.64056476180588,        !- April Surface Ground Temperature {C}
    9.01395062150227,        !- May Surface Ground Temperature {C}
    12.3716218187986,        !- June Surface Ground Temperature {C}
    15.2825432986395,        !- July Surface Ground Temperature {C}
    17.1265404634639,        !- August Surface Ground Temperature {C}
    17.2831981509722,        !- September Surface Ground Temperature {C}
    15.7834163910108,        !- October Surface Ground Temperature {C}
    12.9467251179508,        !- November Surface Ground Temperature {C}
    9.69205359695236;        !- December Surface Ground Temperature {C}


!-   ===========  ALL OBJECTS IN CLASS: SITE:WATERMAINSTEMPERATURE ===========

Site:WaterMainsTemperature,
    Schedule,                !- Calculation Method
    mains temperature schedule;  !- Temperature Schedule Name


!-   ===========  ALL OBJECTS IN CLASS: SCHEDULETYPELIMITS ===========

ScheduleTypeLimits,
    Fractional,              !- Name
    0,                       !- Lower Limit Value
    1,                       !- Upper Limit Value
    Continuous;              !- Numeric Type

ScheduleTypeLimits,
    conditioned space Thermostat Schedule Type Limits,  !- Name
    0,                       !- Lower Limit Value
    4,                       !- Upper Limit Value
    DISCRETE;                !- Numeric Type

ScheduleTypeLimits,
    Temperature,             !- Name
    ,                        !- Lower Limit Value
    ,                        !- Upper Limit Value
    Continuous,              !- Numeric Type
    temperature;             !- Unit Type

ScheduleTypeLimits,
    ActivityLevel,           !- Name
    0,                       !- Lower Limit Value
    ,                        !- Upper Limit Value
    Continuous,              !- Numeric Type
    activitylevel;           !- Unit Type

ScheduleTypeLimits,
    Fractional 1,            !- Name
    0,                       !- Lower Limit Value
    1,                       !- Upper Limit Value
    Continuous;              !- Numeric Type

ScheduleTypeLimits,
    OnOff,                   !- Name
    0,                       !- Lower Limit Value
    1,                       !- Upper Limit Value
    Discrete,                !- Numeric Type
    availability;            !- Unit Type

ScheduleTypeLimits,
    OnOff 1,                 !- Name
    0,                       !- Lower Limit Value
    1,                       !- Upper Limit Value
    Discrete,                !- Numeric Type
    availability;            !- Unit Type


!-   ===========  ALL OBJECTS IN CLASS: SCHEDULE:DAY:INTERVAL ===========

Schedule:Day:Interval,
    trans schedule winter=0.85 summer=0.7 allday1,  !- Name
    Fractional,              !- Schedule Type Limits Name
    No,                      !- Interpolate to Timestep
    24:00,                   !- Time 1 {hh:mm}
    0.85;                    !- Value Until Time 1

Schedule:Day:Interval,
    trans schedule winter=0.85 summer=0.7 allday121,  !- Name
    Fractional,              !- Schedule Type Limits Name
    No,                      !- Interpolate to Timestep
    24:00,                   !- Time 1 {hh:mm}
    0.7;                     !- Value Until Time 1

Schedule:Day:Interval,
    trans schedule winter=0.85 summer=0.7 allday305,  !- Name
    Fractional,              !- Schedule Type Limits Name
    No,                      !- Interpolate to Timestep
    24:00,                   !- Time 1 {hh:mm}
    0.85;                    !- Value Until Time 1

Schedule:Day:Interval,
    trans schedule winter=0.85 summer=0.7 default day,  !- Name
    Fractional,              !- Schedule Type Limits Name
    No,                      !- Interpolate to Timestep
    24:00,                   !- Time 1 {hh:mm}
    0;                       !- Value Until Time 1

Schedule:Day:Interval,
    interior lighting schedule allday1,  !- Name
    Fractional,              !- Schedule Type Limits Name
    No,                      !- Interpolate to Timestep
    01:00,                   !- Time 1 {hh:mm}
    0.108181818181818,       !- Value Until Time 1
    04:00,                   !- Time 2 {hh:mm}
    0.0901515151515151,      !- Value Until Time 2
    05:00,                   !- Time 3 {hh:mm}
    0.0991666666666667,      !- Value Until Time 3
    06:00,                   !- Time 4 {hh:mm}
    0.162272727272727,       !- Value Until Time 4
    07:00,                   !- Time 5 {hh:mm}
    0.270454545454545,       !- Value Until Time 5
    08:00,                   !- Time 6 {hh:mm}
    0.342575757575758,       !- Value Until Time 6
    10:00,                   !- Time 7 {hh:mm}
    0.369621212121212,       !- Value Until Time 7
    11:00,                   !- Time 8 {hh:mm}
    0.351590909090909,       !- Value Until Time 8
    12:00,                   !- Time 9 {hh:mm}
    0.333560606060606,       !- Value Until Time 9
    13:00,                   !- Time 10 {hh:mm}
    0.324545454545455,       !- Value Until Time 10
    14:00,                   !- Time 11 {hh:mm}
    0.315530303030303,       !- Value Until Time 11
    15:00,                   !- Time 12 {hh:mm}
    0.333560606060606,       !- Value Until Time 12
    16:00,                   !- Time 13 {hh:mm}
    0.369621212121212,       !- Value Until Time 13
    17:00,                   !- Time 14 {hh:mm}
    0.450757575757576,       !- Value Until Time 14
    18:00,                   !- Time 15 {hh:mm}
    0.585984848484848,       !- Value Until Time 15
    19:00,                   !- Time 16 {hh:mm}
    0.77530303030303,        !- Value Until Time 16
    20:00,                   !- Time 17 {hh:mm}
    0.955606060606061,       !- Value Until Time 17
    21:00,                   !- Time 18 {hh:mm}
    0.991666666666667,       !- Value Until Time 18
    22:00,                   !- Time 19 {hh:mm}
    0.71219696969697,        !- Value Until Time 19
    23:00,                   !- Time 20 {hh:mm}
    0.360606060606061,       !- Value Until Time 20
    24:00,                   !- Time 21 {hh:mm}
    0.162272727272727;       !- Value Until Time 21

Schedule:Day:Interval,
    interior lighting schedule allday2,  !- Name
    Fractional,              !- Schedule Type Limits Name
    No,                      !- Interpolate to Timestep
    01:00,                   !- Time 1 {hh:mm}
    0.100909090909091,       !- Value Until Time 1
    04:00,                   !- Time 2 {hh:mm}
    0.0840909090909091,      !- Value Until Time 2
    05:00,                   !- Time 3 {hh:mm}
    0.0925,                  !- Value Until Time 3
    06:00,                   !- Time 4 {hh:mm}
    0.151363636363636,       !- Value Until Time 4
    07:00,                   !- Time 5 {hh:mm}
    0.252272727272727,       !- Value Until Time 5
    08:00,                   !- Time 6 {hh:mm}
    0.319545454545455,       !- Value Until Time 6
    10:00,                   !- Time 7 {hh:mm}
    0.344772727272727,       !- Value Until Time 7
    11:00,                   !- Time 8 {hh:mm}
    0.327954545454545,       !- Value Until Time 8
    12:00,                   !- Time 9 {hh:mm}
    0.311136363636364,       !- Value Until Time 9
    13:00,                   !- Time 10 {hh:mm}
    0.302727272727273,       !- Value Until Time 10
    14:00,                   !- Time 11 {hh:mm}
    0.294318181818182,       !- Value Until Time 11
    15:00,                   !- Time 12 {hh:mm}
    0.311136363636364,       !- Value Until Time 12
    16:00,                   !- Time 13 {hh:mm}
    0.344772727272727,       !- Value Until Time 13
    17:00,                   !- Time 14 {hh:mm}
    0.420454545454545,       !- Value Until Time 14
    18:00,                   !- Time 15 {hh:mm}
    0.546590909090909,       !- Value Until Time 15
    19:00,                   !- Time 16 {hh:mm}
    0.723181818181818,       !- Value Until Time 16
    20:00,                   !- Time 17 {hh:mm}
    0.891363636363636,       !- Value Until Time 17
    21:00,                   !- Time 18 {hh:mm}
    0.925,                   !- Value Until Time 18
    22:00,                   !- Time 19 {hh:mm}
    0.664318181818182,       !- Value Until Time 19
    23:00,                   !- Time 20 {hh:mm}
    0.336363636363636,       !- Value Until Time 20
    24:00,                   !- Time 21 {hh:mm}
    0.151363636363636;       !- Value Until Time 21

Schedule:Day:Interval,
    interior lighting schedule allday3,  !- Name
    Fractional,              !- Schedule Type Limits Name
    No,                      !- Interpolate to Timestep
    01:00,                   !- Time 1 {hh:mm}
    0.0927272727272727,      !- Value Until Time 1
    04:00,                   !- Time 2 {hh:mm}
    0.0772727272727273,      !- Value Until Time 2
    05:00,                   !- Time 3 {hh:mm}
    0.085,                   !- Value Until Time 3
    06:00,                   !- Time 4 {hh:mm}
    0.139090909090909,       !- Value Until Time 4
    07:00,                   !- Time 5 {hh:mm}
    0.231818181818182,       !- Value Until Time 5
    08:00,                   !- Time 6 {hh:mm}
    0.293636363636364,       !- Value Until Time 6
    10:00,                   !- Time 7 {hh:mm}
    0.316818181818182,       !- Value Until Time 7
    11:00,                   !- Time 8 {hh:mm}
    0.301363636363636,       !- Value Until Time 8
    12:00,                   !- Time 9 {hh:mm}
    0.285909090909091,       !- Value Until Time 9
    13:00,                   !- Time 10 {hh:mm}
    0.278181818181818,       !- Value Until Time 10
    14:00,                   !- Time 11 {hh:mm}
    0.270454545454545,       !- Value Until Time 11
    15:00,                   !- Time 12 {hh:mm}
    0.285909090909091,       !- Value Until Time 12
    16:00,                   !- Time 13 {hh:mm}
    0.316818181818182,       !- Value Until Time 13
    17:00,                   !- Time 14 {hh:mm}
    0.386363636363636,       !- Value Until Time 14
    18:00,                   !- Time 15 {hh:mm}
    0.502272727272727,       !- Value Until Time 15
    19:00,                   !- Time 16 {hh:mm}
    0.664545454545454,       !- Value Until Time 16
    20:00,                   !- Time 17 {hh:mm}
    0.819090909090909,       !- Value Until Time 17
    21:00,                   !- Time 18 {hh:mm}
    0.85,                    !- Value Until Time 18
    22:00,                   !- Time 19 {hh:mm}
    0.610454545454545,       !- Value Until Time 19
    23:00,                   !- Time 20 {hh:mm}
    0.309090909090909,       !- Value Until Time 20
    24:00,                   !- Time 21 {hh:mm}
    0.139090909090909;       !- Value Until Time 21

Schedule:Day:Interval,
    interior lighting schedule allday4,  !- Name
    Fractional,              !- Schedule Type Limits Name
    No,                      !- Interpolate to Timestep
    01:00,                   !- Time 1 {hh:mm}
    0.0845454545454545,      !- Value Until Time 1
    04:00,                   !- Time 2 {hh:mm}
    0.0704545454545455,      !- Value Until Time 2
    05:00,                   !- Time 3 {hh:mm}
    0.0775,                  !- Value Until Time 3
    06:00,                   !- Time 4 {hh:mm}
    0.126818181818182,       !- Value Until Time 4
    07:00,                   !- Time 5 {hh:mm}
    0.211363636363636,       !- Value Until Time 5
    08:00,                   !- Time 6 {hh:mm}
    0.267727272727273,       !- Value Until Time 6
    10:00,                   !- Time 7 {hh:mm}
    0.288863636363636,       !- Value Until Time 7
    11:00,                   !- Time 8 {hh:mm}
    0.274772727272727,       !- Value Until Time 8
    12:00,                   !- Time 9 {hh:mm}
    0.260681818181818,       !- Value Until Time 9
    13:00,                   !- Time 10 {hh:mm}
    0.253636363636364,       !- Value Until Time 10
    14:00,                   !- Time 11 {hh:mm}
    0.246590909090909,       !- Value Until Time 11
    15:00,                   !- Time 12 {hh:mm}
    0.260681818181818,       !- Value Until Time 12
    16:00,                   !- Time 13 {hh:mm}
    0.288863636363636,       !- Value Until Time 13
    17:00,                   !- Time 14 {hh:mm}
    0.352272727272727,       !- Value Until Time 14
    18:00,                   !- Time 15 {hh:mm}
    0.457954545454545,       !- Value Until Time 15
    19:00,                   !- Time 16 {hh:mm}
    0.605909090909091,       !- Value Until Time 16
    20:00,                   !- Time 17 {hh:mm}
    0.746818181818182,       !- Value Until Time 17
    21:00,                   !- Time 18 {hh:mm}
    0.775,                   !- Value Until Time 18
    22:00,                   !- Time 19 {hh:mm}
    0.556590909090909,       !- Value Until Time 19
    23:00,                   !- Time 20 {hh:mm}
    0.281818181818182,       !- Value Until Time 20
    24:00,                   !- Time 21 {hh:mm}
    0.126818181818182;       !- Value Until Time 21

Schedule:Day:Interval,
    interior lighting schedule allday5,  !- Name
    Fractional,              !- Schedule Type Limits Name
    No,                      !- Interpolate to Timestep
    01:00,                   !- Time 1 {hh:mm}
    0.0763636363636364,      !- Value Until Time 1
    04:00,                   !- Time 2 {hh:mm}
    0.0636363636363636,      !- Value Until Time 2
    05:00,                   !- Time 3 {hh:mm}
    0.07,                    !- Value Until Time 3
    06:00,                   !- Time 4 {hh:mm}
    0.114545454545455,       !- Value Until Time 4
    07:00,                   !- Time 5 {hh:mm}
    0.190909090909091,       !- Value Until Time 5
    08:00,                   !- Time 6 {hh:mm}
    0.241818181818182,       !- Value Until Time 6
    10:00,                   !- Time 7 {hh:mm}
    0.260909090909091,       !- Value Until Time 7
    11:00,                   !- Time 8 {hh:mm}
    0.248181818181818,       !- Value Until Time 8
    12:00,                   !- Time 9 {hh:mm}
    0.235454545454545,       !- Value Until Time 9
    13:00,                   !- Time 10 {hh:mm}
    0.229090909090909,       !- Value Until Time 10
    14:00,                   !- Time 11 {hh:mm}
    0.222727272727273,       !- Value Until Time 11
    15:00,                   !- Time 12 {hh:mm}
    0.235454545454545,       !- Value Until Time 12
    16:00,                   !- Time 13 {hh:mm}
    0.260909090909091,       !- Value Until Time 13
    17:00,                   !- Time 14 {hh:mm}
    0.318181818181818,       !- Value Until Time 14
    18:00,                   !- Time 15 {hh:mm}
    0.413636363636364,       !- Value Until Time 15
    19:00,                   !- Time 16 {hh:mm}
    0.547272727272727,       !- Value Until Time 16
    20:00,                   !- Time 17 {hh:mm}
    0.674545454545454,       !- Value Until Time 17
    21:00,                   !- Time 18 {hh:mm}
    0.7,                     !- Value Until Time 18
    22:00,                   !- Time 19 {hh:mm}
    0.502727272727273,       !- Value Until Time 19
    23:00,                   !- Time 20 {hh:mm}
    0.254545454545455,       !- Value Until Time 20
    24:00,                   !- Time 21 {hh:mm}
    0.114545454545455;       !- Value Until Time 21

Schedule:Day:Interval,
    interior lighting schedule allday6,  !- Name
    Fractional,              !- Schedule Type Limits Name
    No,                      !- Interpolate to Timestep
    01:00,                   !- Time 1 {hh:mm}
    0.0727272727272727,      !- Value Until Time 1
    04:00,                   !- Time 2 {hh:mm}
    0.0606060606060606,      !- Value Until Time 2
    05:00,                   !- Time 3 {hh:mm}
    0.0666666666666667,      !- Value Until Time 3
    06:00,                   !- Time 4 {hh:mm}
    0.109090909090909,       !- Value Until Time 4
    07:00,                   !- Time 5 {hh:mm}
    0.181818181818182,       !- Value Until Time 5
    08:00,                   !- Time 6 {hh:mm}
    0.23030303030303,        !- Value Until Time 6
    10:00,                   !- Time 7 {hh:mm}
    0.248484848484849,       !- Value Until Time 7
    11:00,                   !- Time 8 {hh:mm}
    0.236363636363636,       !- Value Until Time 8
    12:00,                   !- Time 9 {hh:mm}
    0.224242424242424,       !- Value Until Time 9
    13:00,                   !- Time 10 {hh:mm}
    0.218181818181818,       !- Value Until Time 10
    14:00,                   !- Time 11 {hh:mm}
    0.212121212121212,       !- Value Until Time 11
    15:00,                   !- Time 12 {hh:mm}
    0.224242424242424,       !- Value Until Time 12
    16:00,                   !- Time 13 {hh:mm}
    0.248484848484849,       !- Value Until Time 13
    17:00,                   !- Time 14 {hh:mm}
    0.303030303030303,       !- Value Until Time 14
    18:00,                   !- Time 15 {hh:mm}
    0.393939393939394,       !- Value Until Time 15
    19:00,                   !- Time 16 {hh:mm}
    0.521212121212121,       !- Value Until Time 16
    20:00,                   !- Time 17 {hh:mm}
    0.642424242424242,       !- Value Until Time 17
    21:00,                   !- Time 18 {hh:mm}
    0.666666666666667,       !- Value Until Time 18
    22:00,                   !- Time 19 {hh:mm}
    0.478787878787879,       !- Value Until Time 19
    23:00,                   !- Time 20 {hh:mm}
    0.242424242424242,       !- Value Until Time 20
    24:00,                   !- Time 21 {hh:mm}
    0.109090909090909;       !- Value Until Time 21

Schedule:Day:Interval,
    interior lighting schedule allday7,  !- Name
    Fractional,              !- Schedule Type Limits Name
    No,                      !- Interpolate to Timestep
    01:00,                   !- Time 1 {hh:mm}
    0.0745454545454545,      !- Value Until Time 1
    04:00,                   !- Time 2 {hh:mm}
    0.0621212121212121,      !- Value Until Time 2
    05:00,                   !- Time 3 {hh:mm}
    0.0683333333333333,      !- Value Until Time 3
    06:00,                   !- Time 4 {hh:mm}
    0.111818181818182,       !- Value Until Time 4
    07:00,                   !- Time 5 {hh:mm}
    0.186363636363636,       !- Value Until Time 5
    08:00,                   !- Time 6 {hh:mm}
    0.236060606060606,       !- Value Until Time 6
    10:00,                   !- Time 7 {hh:mm}
    0.25469696969697,        !- Value Until Time 7
    11:00,                   !- Time 8 {hh:mm}
    0.242272727272727,       !- Value Until Time 8
    12:00,                   !- Time 9 {hh:mm}
    0.229848484848485,       !- Value Until Time 9
    13:00,                   !- Time 10 {hh:mm}
    0.223636363636364,       !- Value Until Time 10
    14:00,                   !- Time 11 {hh:mm}
    0.217424242424242,       !- Value Until Time 11
    15:00,                   !- Time 12 {hh:mm}
    0.229848484848485,       !- Value Until Time 12
    16:00,                   !- Time 13 {hh:mm}
    0.25469696969697,        !- Value Until Time 13
    17:00,                   !- Time 14 {hh:mm}
    0.310606060606061,       !- Value Until Time 14
    18:00,                   !- Time 15 {hh:mm}
    0.403787878787879,       !- Value Until Time 15
    19:00,                   !- Time 16 {hh:mm}
    0.534242424242424,       !- Value Until Time 16
    20:00,                   !- Time 17 {hh:mm}
    0.658484848484848,       !- Value Until Time 17
    21:00,                   !- Time 18 {hh:mm}
    0.683333333333333,       !- Value Until Time 18
    22:00,                   !- Time 19 {hh:mm}
    0.490757575757576,       !- Value Until Time 19
    23:00,                   !- Time 20 {hh:mm}
    0.248484848484848,       !- Value Until Time 20
    24:00,                   !- Time 21 {hh:mm}
    0.111818181818182;       !- Value Until Time 21

Schedule:Day:Interval,
    interior lighting schedule allday8,  !- Name
    Fractional,              !- Schedule Type Limits Name
    No,                      !- Interpolate to Timestep
    01:00,                   !- Time 1 {hh:mm}
    0.08,                    !- Value Until Time 1
    04:00,                   !- Time 2 {hh:mm}
    0.0666666666666667,      !- Value Until Time 2
    05:00,                   !- Time 3 {hh:mm}
    0.0733333333333333,      !- Value Until Time 3
    06:00,                   !- Time 4 {hh:mm}
    0.12,                    !- Value Until Time 4
    07:00,                   !- Time 5 {hh:mm}
    0.2,                     !- Value Until Time 5
    08:00,                   !- Time 6 {hh:mm}
    0.253333333333333,       !- Value Until Time 6
    10:00,                   !- Time 7 {hh:mm}
    0.273333333333333,       !- Value Until Time 7
    11:00,                   !- Time 8 {hh:mm}
    0.26,                    !- Value Until Time 8
    12:00,                   !- Time 9 {hh:mm}
    0.246666666666667,       !- Value Until Time 9
    13:00,                   !- Time 10 {hh:mm}
    0.24,                    !- Value Until Time 10
    14:00,                   !- Time 11 {hh:mm}
    0.233333333333333,       !- Value Until Time 11
    15:00,                   !- Time 12 {hh:mm}