!-Generator IDFEditor 1.36a
!-Option SortedOrder
!-NOTE: All comments with '!-' are ignored by the IDFEditor and are generated automatically.
!-      Use '!' comments if they need to be retained when using the IDFEditor.
!-   ===========  ALL OBJECTS IN CLASS: VERSION ===========

  Version,8.5;

!-   ===========  ALL OBJECTS IN CLASS: BUILDING ===========
!========================

  Building,
    NewPlace           Load Calc,  !- Name
    0,                       !- North Axis {deg}
    Suburbs,                 !- Terrain
    0.03,                    !- Loads Convergence Tolerance Value
    0.3,                     !- Temperature Convergence Tolerance Value {deltaC}
    FullExterior,            !- Solar Distribution
    25,                      !- Maximum Number of Warmup Days
    6;                       !- Minimum Number of Warmup Days

!-   ===========  ALL OBJECTS IN CLASS: SURFACECONVECTIONALGORITHM:INSIDE ===========
!========================

  SurfaceConvectionAlgorithm:Inside,Simple;

!-   ===========  ALL OBJECTS IN CLASS: SURFACECONVECTIONALGORITHM:OUTSIDE ===========
!========================

  SurfaceConvectionAlgorithm:Outside,TARP;

!-   ===========  ALL OBJECTS IN CLASS: HEATBALANCEALGORITHM ===========
!========================

  HeatBalanceAlgorithm,ConductionTransferFunction;

!-   ===========  ALL OBJECTS IN CLASS: TIMESTEP ===========
!========================

  Timestep,6;

!-   ===========  ALL OBJECTS IN CLASS: SITE:LOCATION ===========

  Site:Location,
    NewPlace,                !- Name
    40,                      !- Latitude {deg}
    -88,                     !- Longitude {deg}
    -6,                      !- Time Zone {hr}
    0.3048;                  !- Elevation {m}

!-   ===========  ALL OBJECTS IN CLASS: SIZINGPERIOD:DESIGNDAY ===========
!========================

  SizingPeriod:DesignDay,
    NewPlace1-21,            !- Name
    1,                       !- Month
    21,                      !- Day of Month
    Monday,                  !- Day Type
    11,                      !- Maximum Dry-Bulb Temperature {C}
    0,                       !- Daily Dry-Bulb Temperature Range {deltaC}
    ,                        !- Dry-Bulb Temperature Range Modifier Type
    ,                        !- Dry-Bulb Temperature Range Modifier Day Schedule Name
    Wetbulb,                 !- Humidity Condition Type
    11,                      !- Wetbulb or DewPoint at Maximum Dry-Bulb {C}
    ,                        !- Humidity Condition Day Schedule Name
    ,                        !- Humidity Ratio at Maximum Dry-Bulb {kgWater/kgDryAir}
    ,                        !- Enthalpy at Maximum Dry-Bulb {J/kg}
    ,                        !- Daily Wet-Bulb Temperature Range {deltaC}
    99458,                   !- Barometric Pressure {Pa}
    0.44704,                 !- Wind Speed {m/s}
    215,                     !- Wind Direction {deg}
    No,                      !- Rain Indicator
    No,                      !- Snow Indicator
    No,                      !- Daylight Saving Time Indicator
    ASHRAEClearSky,          !- Solar Model Indicator
    ,                        !- Beam Solar Day Schedule Name
    ,                        !- Diffuse Solar Day Schedule Name
    ,                        !- ASHRAE Clear Sky Optical Depth for Beam Irradiance (taub) {dimensionless}
    ,                        !- ASHRAE Clear Sky Optical Depth for Diffuse Irradiance (taud) {dimensionless}
    0;                       !- Sky Clearness

  SizingPeriod:DesignDay,
    NewPlaceSum,             !- Name
    1,                       !- Month
    21,                      !- Day of Month
    Monday,                  !- Day Type
    32,                      !- Maximum Dry-Bulb Temperature {C}
    14,                      !- Daily Dry-Bulb Temperature Range {deltaC}
    ,                        !- Dry-Bulb Temperature Range Modifier Type
    ,                        !- Dry-Bulb Temperature Range Modifier Day Schedule Name
    Wetbulb,                 !- Humidity Condition Type
    14,                      !- Wetbulb or DewPoint at Maximum Dry-Bulb {C}
    ,                        !- Humidity Condition Day Schedule Name
    ,                        !- Humidity Ratio at Maximum Dry-Bulb {kgWater/kgDryAir}
    ,                        !- Enthalpy at Maximum Dry-Bulb {J/kg}
    ,                        !- Daily Wet-Bulb Temperature Range {deltaC}
    99458,                   !- Barometric Pressure {Pa}
    0.44704,                 !- Wind Speed {m/s}
    215,                     !- Wind Direction {deg}
    No,                      !- Rain Indicator
    No,                      !- Snow Indicator
    No,                      !- Daylight Saving Time Indicator
    ASHRAEClearSky,          !- Solar Model Indicator
    ,                        !- Beam Solar Day Schedule Name
    ,                        !- Diffuse Solar Day Schedule Name
    ,                        !- ASHRAE Clear Sky Optical Depth for Beam Irradiance (taub) {dimensionless}
    ,                        !- ASHRAE Clear Sky Optical Depth for Diffuse Irradiance (taud) {dimensionless}
    0;                       !- Sky Clearness

!-   ===========  ALL OBJECTS IN CLASS: SITE:GROUNDTEMPERATURE:BUILDINGSURFACE ===========
!========================
!RunPeriod,1,1,12,31;
!========================

  Site:GroundTemperature:BuildingSurface,20,20,20,20,20,20,20,20,20,20,20,20;

!-   ===========  ALL OBJECTS IN CLASS: SCHEDULETYPELIMITS ===========
! =========================

  ScheduleTypeLimits,
    Temperature,             !- Name
    -60,                     !- Lower Limit Value
    200,                     !- Upper Limit Value
    Continuous;              !- Numeric Type

! =========================

  ScheduleTypeLimits,
    Control Type,            !- Name
    0,                       !- Lower Limit Value
    4,                       !- Upper Limit Value
    Discrete;                !- Numeric Type

! =========================

  ScheduleTypeLimits,
    Fraction,                !- Name
    0.0,                     !- Lower Limit Value
    1.0,                     !- Upper Limit Value
    Continuous;              !- Numeric Type

! =========================

  ScheduleTypeLimits,
    Any Number;              !- Name

!-   ===========  ALL OBJECTS IN CLASS: SCHEDULE:DAY:HOURLY ===========

  Schedule:Day:Hourly,
    SouthZoneWinterControl-DAY,  !- Name
    Control Type,            !- Schedule Type Limits Name
    1,                       !- Hour 1
    1,                       !- Hour 2
    1,                       !- Hour 3
    1,                       !- Hour 4
    1,                       !- Hour 5
    1,                       !- Hour 6
    1,                       !- Hour 7
    1,                       !- Hour 8
    1,                       !- Hour 9
    1,                       !- Hour 10
    1,                       !- Hour 11
    1,                       !- Hour 12
    1,                       !- Hour 13
    1,                       !- Hour 14
    1,                       !- Hour 15
    1,                       !- Hour 16
    1,                       !- Hour 17
    1,                       !- Hour 18
    1,                       !- Hour 19
    1,                       !- Hour 20
    1,                       !- Hour 21
    1,                       !- Hour 22
    1,                       !- Hour 23
    1;                       !- Hour 24

! =========================

  Schedule:Day:Hourly,
    SouthZone-Setpoints-DAY, !- Name
    Temperature,             !- Schedule Type Limits Name
    21.,                     !- Hour 1
    21.,                     !- Hour 2
    21.,                     !- Hour 3
    21.,                     !- Hour 4
    21.,                     !- Hour 5
    21.,                     !- Hour 6
    21.,                     !- Hour 7
    21.,                     !- Hour 8
    21.,                     !- Hour 9
    21.,                     !- Hour 10
    21.,                     !- Hour 11
    21.,                     !- Hour 12
    21.,                     !- Hour 13
    21.,                     !- Hour 14
    21.,                     !- Hour 15
    21.,                     !- Hour 16
    21.,                     !- Hour 17
    21.,                     !- Hour 18
    21.,                     !- Hour 19
    21.,                     !- Hour 20
    21.,                     !- Hour 21
    21.,                     !- Hour 22
    21.,                     !- Hour 23
    21.;                     !- Hour 24

!-   ===========  ALL OBJECTS IN CLASS: SCHEDULE:WEEK:DAILY ===========

  Schedule:Week:Daily,
    SouthZoneWinterControl-WEEK,  !- Name
    SouthZoneWinterControl-DAY,  !- Sunday Schedule:Day Name
    SouthZoneWinterControl-DAY,  !- Monday Schedule:Day Name
    SouthZoneWinterControl-DAY,  !- Tuesday Schedule:Day Name
    SouthZoneWinterControl-DAY,  !- Wednesday Schedule:Day Name
    SouthZoneWinterControl-DAY,  !- Thursday Schedule:Day Name
    SouthZoneWinterControl-DAY,  !- Friday Schedule:Day Name
    SouthZoneWinterControl-DAY,  !- Saturday Schedule:Day Name
    SouthZoneWinterControl-DAY,  !- Holiday Schedule:Day Name
    SouthZoneWinterControl-DAY,  !- SummerDesignDay Schedule:Day Name
    SouthZoneWinterControl-DAY,  !- WinterDesignDay Schedule:Day Name
    SouthZoneWinterControl-DAY,  !- CustomDay1 Schedule:Day Name
    SouthZoneWinterControl-DAY;  !- CustomDay2 Schedule:Day Name

! =========================

  Schedule:Week:Daily,
    SouthZone-Setpoints-WEEK,!- Name
    SouthZone-Setpoints-DAY, !- Sunday Schedule:Day Name
    SouthZone-Setpoints-DAY, !- Monday Schedule:Day Name
    SouthZone-Setpoints-DAY, !- Tuesday Schedule:Day Name
    SouthZone-Setpoints-DAY, !- Wednesday Schedule:Day Name
    SouthZone-Setpoints-DAY, !- Thursday Schedule:Day Name
    SouthZone-Setpoints-DAY, !- Friday Schedule:Day Name
    SouthZone-Setpoints-DAY, !- Saturday Schedule:Day Name
    SouthZone-Setpoints-DAY, !- Holiday Schedule:Day Name
    SouthZone-Setpoints-DAY, !- SummerDesignDay Schedule:Day Name
    SouthZone-Setpoints-DAY, !- WinterDesignDay Schedule:Day Name
    SouthZone-Setpoints-DAY, !- CustomDay1 Schedule:Day Name
    SouthZone-Setpoints-DAY; !- CustomDay2 Schedule:Day Name

!-   ===========  ALL OBJECTS IN CLASS: SCHEDULE:YEAR ===========
! =========================

  Schedule:Year,
    SouthZone-Control Sched, !- Name
    Control Type,            !- Schedule Type Limits Name
    SouthZoneWinterControl-WEEK,  !- Schedule:Week Name 1
    1,                       !- Start Month 1
    1,                       !- Start Day 1
    12,                      !- End Month 1
    31;                      !- End Day 1

! =========================

  Schedule:Year,
    SouthZone-Setpoints,     !- Name
    Temperature,             !- Schedule Type Limits Name
    SouthZone-Setpoints-WEEK,!- Schedule:Week Name 1
    1,                       !- Start Month 1
    1,                       !- Start Day 1
    12,                      !- End Month 1
    31;                      !- End Day 1

!-   ===========  ALL OBJECTS IN CLASS: MATERIAL ===========

  Material,
    F06 EIFS finish,         !- Name
    Smooth,                  !- Roughness
    0.0095,                  !- Thickness {m}
    0.72,                    !- Conductivity {W/m-K}
    1856,                    !- Density {kg/m3}
    840;                     !- Specific Heat {J/kg-K}

  Material,
    F07 25mm stucco,         !- Name
    Smooth,                  !- Roughness
    0.0254,                  !- Thickness {m}
    0.72,                    !- Conductivity {W/m-K}
    1856,                    !- Density {kg/m3}
    840;                     !- Specific Heat {J/kg-K}

  Material,
    F08 Metal surface,       !- Name
    Smooth,                  !- Roughness
    0.0008,                  !- Thickness {m}
    45.28,                   !- Conductivity {W/m-K}
    7824,                    !- Density {kg/m3}
    500;                     !- Specific Heat {J/kg-K}

  Material,
    F09 Opaque spandrel glass,  !- Name
    Smooth,                  !- Roughness
    0.0064,                  !- Thickness {m}
    0.99,                    !- Conductivity {W/m-K}
    2528,                    !- Density {kg/m3}
    880;                     !- Specific Heat {J/kg-K}

  Material,
    F10 25mm stone,          !- Name
    MediumRough,             !- Roughness
    0.0254,                  !- Thickness {m}
    3.17,                    !- Conductivity {W/m-K}
    2560,                    !- Density {kg/m3}
    790;                     !- Specific Heat {J/kg-K}

  Material,
    F11 Wood siding,         !- Name
    MediumSmooth,            !- Roughness
    0.0127,                  !- Thickness {m}
    0.09,                    !- Conductivity {W/m-K}
    592,                     !- Density {kg/m3}
    1170;                    !- Specific Heat {J/kg-K}

  Material,
    F12 Asphalt shingles,    !- Name
    VeryRough,               !- Roughness
    0.0032,                  !- Thickness {m}
    0.04,                    !- Conductivity {W/m-K}
    1120,                    !- Density {kg/m3}
    1260;                    !- Specific Heat {J/kg-K}

  Material,
    F13 Built-up roofing,    !- Name
    Rough,                   !- Roughness
    0.0095,                  !- Thickness {m}
    0.16,                    !- Conductivity {W/m-K}
    1120,                    !- Density {kg/m3}
    1460;                    !- Specific Heat {J/kg-K}

  Material,
    F14 Slate or tile,       !- Name
    VeryRough,               !- Roughness
    0.0127,                  !- Thickness {m}
    1.59,                    !- Conductivity {W/m-K}
    1920,                    !- Density {kg/m3}
    1260;                    !- Specific Heat {J/kg-K}

  Material,
    F15 Wood shingles,       !- Name
    VeryRough,               !- Roughness
    0.0064,                  !- Thickness {m}
    0.04,                    !- Conductivity {W/m-K}
    592,                     !- Density {kg/m3}
    1300;                    !- Specific Heat {J/kg-K}

  Material,
    F16 Acoustic tile,       !- Name
    MediumSmooth,            !- Roughness
    0.0191,                  !- Thickness {m}
    0.06,                    !- Conductivity {W/m-K}
    368,                     !- Density {kg/m3}
    590;                     !- Specific Heat {J/kg-K}

  Material,
    F17 Carpet,              !- Name
    MediumRough,             !- Roughness
    0.0127,                  !- Thickness {m}
    0.06,                    !- Conductivity {W/m-K}
    288,                     !- Density {kg/m3}
    1380;                    !- Specific Heat {J/kg-K}

  Material,
    F18 Terrazzo,            !- Name
    Rough,                   !- Roughness
    0.0254,                  !- Thickness {m}
    1.8,                     !- Conductivity {W/m-K}
    2560,                    !- Density {kg/m3}
    790;                     !- Specific Heat {J/kg-K}

  Material,
    G01 16mm gypsum board,   !- Name
    MediumSmooth,            !- Roughness
    0.0159,                  !- Thickness {m}
    0.16,                    !- Conductivity {W/m-K}
    800,                     !- Density {kg/m3}
    1090;                    !- Specific Heat {J/kg-K}

  Material,
    G01a 19mm gypsum board,  !- Name
    MediumSmooth,            !- Roughness
    0.019,                   !- Thickness {m}
    0.16,                    !- Conductivity {W/m-K}
    800,                     !- Density {kg/m3}
    1090;                    !- Specific Heat {J/kg-K}

  Material,
    G02 16mm plywood,        !- Name
    Smooth,                  !- Roughness
    0.0159,                  !- Thickness {m}
    0.12,                    !- Conductivity {W/m-K}
    544,                     !- Density {kg/m3}
    1210;                    !- Specific Heat {J/kg-K}

  Material,
    G03 13mm fiberboard sheathing,  !- Name
    Smooth,                  !- Roughness
    0.0127,                  !- Thickness {m}
    0.07,                    !- Conductivity {W/m-K}
    400,                     !- Density {kg/m3}
    1300;                    !- Specific Heat {J/kg-K}

  Material,
    G04 13mm wood,           !- Name
    MediumSmooth,            !- Roughness
    0.0127,                  !- Thickness {m}
    0.15,                    !- Conductivity {W/m-K}
    608,                     !- Density {kg/m3}
    1630;                    !- Specific Heat {J/kg-K}

  Material,
    G05 25mm wood,           !- Name
    MediumSmooth,            !- Roughness
    0.0254,                  !- Thickness {m}
    0.15,                    !- Conductivity {W/m-K}
    608,                     !- Density {kg/m3}
    1630;                    !- Specific Heat {J/kg-K}

  Material,
    G06 50mm wood,           !- Name
    MediumSmooth,            !- Roughness
    0.0508,                  !- Thickness {m}
    0.15,                    !- Conductivity {W/m-K}
    608,                     !- Density {kg/m3}
    1630;                    !- Specific Heat {J/kg-K}

  Material,
    G07 100mm wood,          !- Name
    MediumSmooth,            !- Roughness
    0.1016,                  !- Thickness {m}
    0.15,                    !- Conductivity {W/m-K}
    608,                     !- Density {kg/m3}
    1630;                    !- Specific Heat {J/kg-K}

  Material,
    I01 25mm insulation board,  !- Name
    MediumRough,             !- Roughness
    0.0254,                  !- Thickness {m}
    0.03,                    !- Conductivity {W/m-K}
    43,                      !- Density {kg/m3}
    1210;                    !- Specific Heat {J/kg-K}

  Material,
    I02 50mm insulation board,  !- Name
    MediumRough,             !- Roughness
    0.0508,                  !- Thickness {m}
    0.03,                    !- Conductivity {W/m-K}
    43,                      !- Density {kg/m3}
    1210;                    !- Specific Heat {J/kg-K}

  Material,
    I03 75mm insulation board,  !- Name
    MediumRough,             !- Roughness
    0.0762,                  !- Thickness {m}
    0.03,                    !- Conductivity {W/m-K}
    43,                      !- Density {kg/m3}
    1210;                    !- Specific Heat {J/kg-K}

  Material,
    I04 89mm batt insulation,!- Name
    VeryRough,               !- Roughness
    0.0894,                  !- Thickness {m}
    0.05,                    !- Conductivity {W/m-K}
    19,                      !- Density {kg/m3}
    960;                     !- Specific Heat {J/kg-K}

  Material,
    I05 154mm batt insulation,  !- Name
    VeryRough,               !- Roughness
    0.1544,                  !- Thickness {m}
    0.05,                    !- Conductivity {W/m-K}
    19,                      !- Density {kg/m3}
    960;                     !- Specific Heat {J/kg-K}

  Material,
    I06 244mm batt insulation,  !- Name
    VeryRough,               !- Roughness
    0.2438,                  !- Thickness {m}
    0.05,                    !- Conductivity {W/m-K}
    19,                      !- Density {kg/m3}
    960;                     !- Specific Heat {J/kg-K}

  Material,
    M01 100mm brick,         !- Name
    MediumRough,             !- Roughness
    0.1016,                  !- Thickness {m}
    0.89,                    !- Conductivity {W/m-K}
    1920,                    !- Density {kg/m3}
    790;                     !- Specific Heat {J/kg-K}

  Material,
    M02 150mm lightweight concrete block,  !- Name
    MediumRough,             !- Roughness
    0.1524,                  !- Thickness {m}
    0.49,                    !- Conductivity {W/m-K}
    512,                     !- Density {kg/m3}
    880;                     !- Specific Heat {J/kg-K}

  Material,
    M03 200mm lightweight concrete block,  !- Name
    MediumRough,             !- Roughness
    0.2032,                  !- Thickness {m}
    0.5,                     !- Conductivity {W/m-K}
    464,                     !- Density {kg/m3}
    880;                     !- Specific Heat {J/kg-K}

  Material,
    M04 300mm lightweight concrete block,  !- Name
    MediumRough,             !- Roughness
    0.3048,                  !- Thickness {m}
    0.71,                    !- Conductivity {W/m-K}
    512,                     !- Density {kg/m3}
    880;                     !- Specific Heat {J/kg-K}

  Material,
    M05 200mm concrete block,!- Name
    MediumRough,             !- Roughness
    0.2032,                  !- Thickness {m}
    1.11,                    !- Conductivity {W/m-K}
    800,                     !- Density {kg/m3}
    920;                     !- Specific Heat {J/kg-K}

  Material,
    M06 300mm concrete block,!- Name
    MediumRough,             !- Roughness
    0.3048,                  !- Thickness {m}
    1.4,                     !- Conductivity {W/m-K}
    800,                     !- Density {kg/m3}
    920;                     !- Specific Heat {J/kg-K}

  Material,
    M07 150mm lightweight concrete block (filled),  !- Name
    MediumRough,             !- Roughness
    0.1524,                  !- Thickness {m}
    0.29,                    !- Conductivity {W/m-K}
    512,                     !- Density {kg/m3}
    880;                     !- Specific Heat {J/kg-K}

  Material,
    M08 200mm lightweight concrete block (filled),  !- Name
    MediumRough,             !- Roughness
    0.2032,                  !- Thickness {m}
    0.26,                    !- Conductivity {W/m-K}
    464,                     !- Density {kg/m3}
    880;                     !- Specific Heat {J/kg-K}

  Material,
    M09 300mm lightweight concrete block (filled),  !- Name
    MediumRough,             !- Roughness
    0.3048,                  !- Thickness {m}
    0.29,                    !- Conductivity {W/m-K}
    512,                     !- Density {kg/m3}
    880;                     !- Specific Heat {J/kg-K}

  Material,
    M10 200mm concrete block (filled),  !- Name
    MediumRough,             !- Roughness
    0.2032,                  !- Thickness {m}
    0.72,                    !- Conductivity {W/m-K}
    800,                     !- Density {kg/m3}
    920;                     !- Specific Heat {J/kg-K}

  Material,
    M11 100mm lightweight concrete,  !- Name
    MediumRough,             !- Roughness
    0.1016,                  !- Thickness {m}
    0.53,                    !- Conductivity {W/m-K}
    1280,                    !- Density {kg/m3}
    840;                     !- Specific Heat {J/kg-K}

  Material,
    M12 150mm lightweight concrete,  !- Name
    MediumRough,             !- Roughness
    0.1524,                  !- Thickness {m}
    0.53,                    !- Conductivity {W/m-K}
    1280,                    !- Density {kg/m3}
    840;                     !- Specific Heat {J/kg-K}

  Material,
    M13 200mm lightweight concrete,  !- Name
    MediumRough,             !- Roughness
    0.2032,                  !- Thickness {m}
    0.53,                    !- Conductivity {W/m-K}
    1280,                    !- Density {kg/m3}
    840;                     !- Specific Heat {J/kg-K}

  Material,
    M14a 100mm heavyweight concrete,  !- Name
    MediumRough,             !- Roughness
    0.1016,                  !- Thickness {m}
    1.95,                    !- Conductivity {W/m-K}
    2240,                    !- Density {kg/m3}
    900;                     !- Specific Heat {J/kg-K}

  Material,
    M14 150mm heavyweight concrete,  !- Name
    MediumRough,             !- Roughness
    0.1524,                  !- Thickness {m}
    1.95,                    !- Conductivity {W/m-K}
    2240,                    !- Density {kg/m3}
    900;                     !- Specific Heat {J/kg-K}

  Material,
    M15 200mm heavyweight concrete,  !- Name
    MediumRough,             !- Roughness
    0.2032,                  !- Thickness {m}
    1.95,                    !- Conductivity {W/m-K}
    2240,                    !- Density {kg/m3}
    900;                     !- Specific Heat {J/kg-K}

  Material,
    M16 300mm heavyweight concrete,  !- Name
    MediumRough,             !- Roughness
    0.3048,                  !- Thickness {m}
    1.95,                    !- Conductivity {W/m-K}
    2240,                    !- Density {kg/m3}
    900;                     !- Specific Heat {J/kg-K}

  Material,
    M17 50mm lightweight concrete roof ballast,  !- Name
    MediumRough,             !- Roughness
    0.0508,                  !- Thickness {m}
    0.19,                    !- Conductivity {W/m-K}
    640,                     !- Density {kg/m3}
    840;                     !- Specific Heat {J/kg-K}

!===============================================================================
! HOF Materials, Chapter 25
! The following materials and constructions are created from
! ASHRAE Handbook of Fundamentals, 2005, Chapter 25, Table 4.
!===============================================================================

  Material,
    Asbestos-cement board - 3.2mm,  !- Name
    Smooth,                  !- Roughness
    0.0032,                  !- Thickness {m}
    0.58,                    !- Conductivity {W/m-K}
    1900,                    !- Density {kg/m3}
    1000;                    !- Specific Heat {J/kg-K}

  Material,
    Asbestos-cement board - 6.4mm,  !- Name
    Smooth,                  !- Roughness
    0.0064,                  !- Thickness {m}
    0.58,                    !- Conductivity {W/m-K}
    1900,                    !- Density {kg/m3}
    1000;                    !- Specific Heat {J/kg-K}

  Material,
    Gypsum or plaster board - 9.5mm,  !- Name
    MediumSmooth,            !- Roughness
    0.0095,                  !- Thickness {m}
    0.58,                    !- Conductivity {W/m-K}
    800,                     !- Density {kg/m3}
    1090;                    !- Specific Heat {J/kg-K}

  Material,
    Gypsum or plaster board - 2.7mm,  !- Name
    MediumSmooth,            !- Roughness
    0.0027,                  !- Thickness {m}
    0.58,                    !- Conductivity {W/m-K}
    800,                     !- Density {kg/m3}
    1090;                    !- Specific Heat {J/kg-K}

  Material,
    Gypsum or plaster board - 5.9mm,  !- Name
    MediumSmooth,            !- Roughness
    0.0059,                  !- Thickness {m}
    0.58,                    !- Conductivity {W/m-K}
    800,                     !- Density {kg/m3}
    1090;                    !- Specific Heat {J/kg-K}

  Material,
    Plywood (Douglas Fir) - 6.4mm,  !- Name
    MediumSmooth,            !- Roughness
    0.0064,                  !- Thickness {m}
    0.12,                    !- Conductivity {W/m-K}
    540,                     !- Density {kg/m3}
    1210;                    !- Specific Heat {J/kg-K}

  Material,
    Plywood (Douglas Fir) - 9.5mm,  !- Name
    Smooth,                  !- Roughness
    0.0095,                  !- Thickness {m}
    0.12,                    !- Conductivity {W/m-K}
    540,                     !- Density {kg/m3}
    1210;                    !- Specific Heat {J/kg-K}

  Material,
    Plywood (Douglas Fir) - 12.7mm,  !- Name
    Smooth,                  !- Roughness
    0.0127,                  !- Thickness {m}
    0.12,                    !- Conductivity {W/m-K}
    540,                     !- Density {kg/m3}
    1210;                    !- Specific Heat {J/kg-K}

  Material,
    Plywood (Douglas Fir) - 15.9mm,  !- Name
    Smooth,                  !- Roughness
    0.0159,                  !- Thickness {m}
    0.12,                    !- Conductivity {W/m-K}
    540,                     !- Density {kg/m3}
    1210;                    !- Specific Heat {J/kg-K}

  Material,
    Plywood or wood panels - 19.0mm,  !- Name
    Smooth,                  !- Roughness
    0.019,                   !- Thickness {m}
    0.12,                    !- Conductivity {W/m-K}
    540,                     !- Density {kg/m3}
    1210;                    !- Specific Heat {J/kg-K}

  Material,
    Sheathing - regular density - 12.7mm,  !- Name
    Smooth,                  !- Roughness
    0.0127,                  !- Thickness {m}
    0.055,                   !- Conductivity {W/m-K}
    290,                     !- Density {kg/m3}
    1300;                    !- Specific Heat {J/kg-K}

  Material,
    Sheathing - regular density - 19.8mm,  !- Name
    Smooth,                  !- Roughness
    0.0198,                  !- Thickness {m}
    0.055,                   !- Conductivity {W/m-K}
    290,                     !- Density {kg/m3}
    1300;                    !- Specific Heat {J/kg-K}

  Material,
    Sheathing intermediate density - 12.7mm,  !- Name
    Smooth,                  !- Roughness
    0.0127,                  !- Thickness {m}
    0.057,                   !- Conductivity {W/m-K}
    350,                     !- Density {kg/m3}
    1300;                    !- Specific Heat {J/kg-K}

  Material,
    Nail-base sheathing - 12.7mm,  !- Name
    Smooth,                  !- Roughness
    0.0127,                  !- Thickness {m}
    0.057,                   !- Conductivity {W/m-K}
    400,                     !- Density {kg/m3}
    1300;                    !- Specific Heat {J/kg-K}

  Material,
    Shingle backer - 9.5mm,  !- Name
    Smooth,                  !- Roughness
    0.0095,                  !- Thickness {m}
    0.063,                   !- Conductivity {W/m-K}
    290,                     !- Density {kg/m3}
    1300;                    !- Specific Heat {J/kg-K}

  Material,
    Shingle backer - 7.9mm,  !- Name
    Smooth,                  !- Roughness
    0.0079,                  !- Thickness {m}
    0.063,                   !- Conductivity {W/m-K}
    290,                     !- Density {kg/m3}
    1300;                    !- Specific Heat {J/kg-K}

  Material,
    Sound deadening board,   !- Name
    Smooth,                  !- Roughness
    0.0127,                  !- Thickness {m}
    0.063,                   !- Conductivity {W/m-K}
    240,                     !- Density {kg/m3}