!-Generator IDFEditor 1.41
!-Option OriginalOrderTop UseSpecialFormat
!-NOTE: All comments with '!-' are ignored by the IDFEditor and are generated automatically.
!-      Use '!' comments if they need to be retained when using the IDFEditor.
! SmallOffice_Dulles.idf
! Basic file description:      2 story building with 2 zones per floor.
!                              No ground contact with floor.
!
! Highlights:                  Small office building intending to represent (from CBECS 1999 analysis),
!                              this prototype represents:
!                               - One third of the office sector stock floor area, 5.96% of total floor area
!                               - 14.3% of the total number of commercial buildings
!                               - 5.0% of the total major fuels energy consumption of commercial buildings
!                              Prototype developed by Drury B. Crawley for Ph.D. research
!
! Simulation Location/Run:     WASHINGTON-DULLES_INTL_VA_USA_WMO_724030, 18 design days, 1 run period (annual run),
!                              Run Control executes the run period.
!
! Location:                    Washington Dulles Internatioanl Airport, VA
!
! Design Days:                 WASHINGTON-DULLES_INTL_VA_USA Annual Heating 99.6%, MaxDB=-12.5°C
!                              WASHINGTON-DULLES_INTL_VA_USA Annual Heating 99%, MaxDB=-9.7°C
!                              WASHINGTON-DULLES_INTL_VA_USA Annual Humidification 99.6% DP=>MCDB, DP=-19.9°C
!                              WASHINGTON-DULLES_INTL_VA_USA Annual Humidification 99% DP=>MCDB, DP=-16.9°C
!                              WASHINGTON-DULLES_INTL_VA_USA Annual Heating Wind 99.6% WS=>MCDB, WS=11.9m/s
!                              WASHINGTON-DULLES_INTL_VA_USA Annual Heating Wind 99% WS=>MCDB, WS=10.8m/s
!                              WASHINGTON-DULLES_INTL_VA_USA Annual Cooling DB=>MWB .4%, MaxDB=34°C MWB=24°C
!                              WASHINGTON-DULLES_INTL_VA_USA Annual Cooling DB=>MWB 1%, MaxDB=32.4°C MWB=23.5°C
!                              WASHINGTON-DULLES_INTL_VA_USA Annual Cooling DB=>MWB 2%, MaxDB=31°C MWB=22.8°C
!                              WASHINGTON-DULLES_INTL_VA_USA Annual Cooling WB=>MDB .4%, MDB=31.5°C WB=25.4°C
!                              WASHINGTON-DULLES_INTL_VA_USA Annual Cooling WB=>MDB 1%, MDB=30.3°C WB=24.7°C
!                              WASHINGTON-DULLES_INTL_VA_USA Annual Cooling WB=>MDB 2%, MDB=29°C WB=24°C
!                              WASHINGTON-DULLES_INTL_VA_USA Annual Cooling DP=>MDB .4%, MDB=28.1°C DP=23.6°C
!                              WASHINGTON-DULLES_INTL_VA_USA Annual Cooling DP=>MDB 1%, MDB=27.3°C DP=23°C
!                              WASHINGTON-DULLES_INTL_VA_USA Annual Cooling DP=>MDB 2%, MDB=26.7°C DP=22.4°C
!                              WASHINGTON-DULLES_INTL_VA_USA Annual Cooling Enthalpy=>MDB .4%, MDB=31.5°C Enthalpy=77.9kJ/kg
!                              WASHINGTON-DULLES_INTL_VA_USA Annual Cooling Enthalpy=>MDB 1%, MDB=30.5°C Enthalpy=75kJ/kg
!                              WASHINGTON-DULLES_INTL_VA_USA Annual Cooling Enthalpy=>MDB 2%, MDB=29.2°C Enthalpy=72.3kJ/kg
!
! Run Period (Weather File):   1/1 through 12/31, WASHINGTON-DULLES_INTL_VA_USA_WMO_724030
!
! Run Control:                 Runs zone, system, and plant autosizing and annual simulation.
!
! Building: Two floor rectangular building 25 m south wall, 11 m east wall, zone height 3.7 m.
!           Continous strip window on all four sides, 40% glazing, windows are double-pane with
!           reflective 6 mm outer pane, inner pane is 6 mm clear.  The walls are 25 mm stucco
!           with insulation between studs, an air layer, and gypsum board.  The roof is a
!           built up roof with insulation 10 cm concrete, an air layer, and acoustic tile.
!           Complies with 90.1-2004 envelope, lighting, and HVAC requirements
!           The building is oriented due north.
!
!           Exercises all the output variables available.
!
! Floor Area:                  275 m2 per floor, 550 m2 gross floor area
! Number of Stories:           2
!
! Zone Description Details:
!
!           (0,11,0)                                     (25,11,0)
!            **************************************************
!           *                                                  *
!           *                                                  *
!           *                                                  *  window = *
!           *                                                  *
!           *                                                  *
!           *                                                  *
!           *                                       (25,5.5,0) *
!           *--------------------------------------------------*
!           * (0,5.5,0)                                        *
!           *                                                  *
!           *                                                  *
!           *                                                  *
!           *                                                  *
!           *                                                  *
!           *                                                  *
!            **************************************************
!           (0,11,0)                                     (25,11,0)
!
!
! Internal gains description:  SouthZone_1stFloor - lighting is 1750 watts, equip is 1031.25 watts, 6 occupants
! Internal gains description:  NorthZone_1stFloor - lighting is 1750 watts, equip is 1031.25 watts, 6 occupants
! Internal gains description:  SouthZone_2ndFloor - lighting is 1750 watts, equip is 1031.25 watts, 6 occupants
! Internal gains description:  NorthZone_2ndFloor - lighting is 1750 watts, equip is 1031.25 watts, 6 occupants
!
! Interzone Surfaces:          2 interzone surfaces (see diagram)
! Internal Mass:               77 m2, 'furniture', 66 cm wood
! People:                      24
! Lights:                      7000 W
! Equipment:                   4125 W
! Windows:                     double pane, outer pane 3 mm reflective, inner pane 3 mm clear
! Detached Shading:            None
! Daylight:                    None
! Natural Ventilation:         None
! Compact Schedules:           Yes
! Solar Distribution:          Full Interior and Exterior
!
! HVAC:                        AirTerminal:UnitaryHeatCool, separate system for each zone, constant volume air loop.
!                              Gas heating and reheat coils, DX cooling coils with bypass. Thermostat setting at 22.2 C
!                              for heating daytime, 12.8 C heating setback; 22.8 C cooling daytime, 40 C cooling setback.
!                              Heating, cooling and reheat available all year long.
!
! Zonal Equipment:             AirTerminal:UnitaryHeatCool
! Central Air Handling Equipment: No
! System Equipment Autosize:   Yes
! Purchased Cooling:           No
! Purchase Heating:            No
! Purchased Chilled Water:     No
! Purchased Hot Water:         No
! Coils:                       Coil:Heating:Gas (heating and reheat), Coil:Cooling:DX:SingleSpeed
! Pumps:                       None
! Boilers:                     None
! Chillers:                    None
! Towers:                      None
! Fans:                        Fan:ConstantVolume
! Domestic Hot Water:          Simple, natural gas-fired hot water heater, 12.5 kW, 80% efficiency
!
! Results:
! Standard Reports:            Variable Dictionary, Construction, Surfaces (Details with vertices, DXF)
! Timestep or Hourly Variables: None
! Time Bins Report:            Outdoor Dry Bulb, Outdoor Dew Point, Outdoor Relative Humidity, Outdoor Humidity Ratio, Outdoor Enthalpy, Wind Speed, Wind Direction, Direct Solar, Diffuse Solar, Electricity:Facility, Gas:Facility, Surface Outside Face Temperature, Surface Inside Face Temperature
! Monthly Table Report:        Zone Cooling Summary, Zone Heating Summary, Zone Electric Summary, Space Gains, Peak Space Gains, Space Gain Components at Cooling Peak, Energy Consumption - Electricity, End-Use Energy Consumption - Electricity, End-Use Energy Consumption - Natural Gas, Peak Energy End-Use - Electricity, Electric Components of Peak Demand, Peak Energy End-Use - Natural Gas, Setpoints Not Met With Temperatures, Comfort Report - Simple 55, Occupant Comfort Data Summary, DX Report,
!                              Window Report, Window Energy Report, Window Zone Summary, Window Energy Zone Summary, Average Outdoor Conditions, Outdoor Conditions Maximum Drybulb, Outdoor Conditions Minimum Drybulb, Outdoor Conditions Maximum Wetbulb, Outdoor Conditions Maximum Dew Point, Outdoor Ground Conditions, Water Heater Report, Fan Report, Zone Temperature Oscillation Report
! HTML Report:                 AnnualBuildingUtilityPerformanceSummary
! Environmental Emissions:     Monthly and annual
! Utility Tariffs:             None
! Report Variables:            All available in RDD (442 requested, monthly and annual results)
!

  Version,8.5;

  Building,
    Small Office 2 Story 4 zone 550 m2,  !- Name
    0,                       !- North Axis {deg}
    Urban,                   !- Terrain
    0.04,                    !- Loads Convergence Tolerance Value
    0.4,                     !- Temperature Convergence Tolerance Value {deltaC}
    FullInteriorAndExterior, !- Solar Distribution
    25,                      !- Maximum Number of Warmup Days
    6;                       !- Minimum Number of Warmup Days

  Timestep,6;

  SurfaceConvectionAlgorithm:Inside,CeilingDiffuser;

  SurfaceConvectionAlgorithm:Outside,DOE-2;

  HeatBalanceAlgorithm,ConductionTransferFunction;

  ShadowCalculation,
    AverageOverDaysInFrequency,  !- Calculation Method
    7;                       !- Calculation Frequency

  Output:Diagnostics,
    DisplayAdvancedReportVariables;  !- Key 1

  SimulationControl,
    Yes,                     !- Do Zone Sizing Calculation
    Yes,                     !- Do System Sizing Calculation
    Yes,                     !- Do Plant Sizing Calculation
    No,                      !- Run Simulation for Sizing Periods
    Yes;                     !- Run Simulation for Weather File Run Periods

  RunPeriod,
    ,                        !- Name
    1,                       !- Begin Month
    1,                       !- Begin Day of Month
    12,                      !- End Month
    31,                      !- End Day of Month
    Wednesday,               !- Day of Week for Start Day
    No,                      !- Use Weather File Holidays and Special Days
    No,                      !- Use Weather File Daylight Saving Period
    Yes,                     !- Apply Weekend Holiday Rule
    Yes,                     !- Use Weather File Rain Indicators
    Yes,                     !- Use Weather File Snow Indicators
    1;                       !- Number of Times Runperiod to be Repeated

  RunPeriodControl:SpecialDays,
    New Years Day,           !- Name
    January 1,               !- Start Date
    1,                       !- Duration {days}
    Holiday;                 !- Special Day Type

  RunPeriodControl:SpecialDays,
    Veterans Day,            !- Name
    November 11,             !- Start Date
    1,                       !- Duration {days}
    Holiday;                 !- Special Day Type

  RunPeriodControl:SpecialDays,
    Christmas,               !- Name
    December 25,             !- Start Date
    1,                       !- Duration {days}
    Holiday;                 !- Special Day Type

  RunPeriodControl:SpecialDays,
    Independence Day,        !- Name
    July 4,                  !- Start Date
    1,                       !- Duration {days}
    Holiday;                 !- Special Day Type

  RunPeriodControl:SpecialDays,
    MLK Day,                 !- Name
    3rd Monday in January,   !- Start Date
    1,                       !- Duration {days}
    Holiday;                 !- Special Day Type

  RunPeriodControl:SpecialDays,
    Presidents Day,          !- Name
    3rd Monday in February,  !- Start Date
    1,                       !- Duration {days}
    Holiday;                 !- Special Day Type

  RunPeriodControl:SpecialDays,
    Memorial Day,            !- Name
    Last Monday in May,      !- Start Date
    1,                       !- Duration {days}
    Holiday;                 !- Special Day Type

  RunPeriodControl:SpecialDays,
    Labor Day,               !- Name
    1st Monday in September, !- Start Date
    1,                       !- Duration {days}
    Holiday;                 !- Special Day Type

  RunPeriodControl:SpecialDays,
    Columbus Day,            !- Name
    2nd Monday in October,   !- Start Date
    1,                       !- Duration {days}
    Holiday;                 !- Special Day Type

  RunPeriodControl:SpecialDays,
    Thanksgiving,            !- Name
    4th Thursday in November,!- Start Date
    1,                       !- Duration {days}
    Holiday;                 !- Special Day Type

 ! The following Location and Design Day data are produced as possible from the indicated data source.
 ! Wind Speeds follow the indicated design conditions rather than traditional values (6.7 m/s heating, 3.35 m/s cooling)
 ! No special attempts at re-creating or determining missing data parts (e.g. Wind speed or direction)
 ! are done.  Therefore, you should look at the data and fill in any incorrect values as you desire.

  Site:Location,
    Washington Dc Dulles IntL Ar_VA_USA Design_Conditions,  !- Name
    38.98,                   !- Latitude {deg}
    -77.47,                  !- Longitude {deg}
    -5.00,                   !- Time Zone {hr}
    82.00;                   !- Elevation {m}

 !  WMO=724030 Time Zone=NAE: (GMT-05:00) Eastern Time (US & Canada)
 !  Data Source=ASHRAE 2009 Annual Design Conditions

  RunPeriodControl:DaylightSavingTime,
    2nd Sunday in March,     !- Start Date
    2nd Sunday in November;  !- End Date

 ! Using Design Conditions from "Climate Design Data 2009 ASHRAE Handbook"
 ! Washington Dc Dulles IntL Ar_VA_USA Extreme Annual Wind Speeds, 1%=9.2m/s, 2.5%=8.2m/s, 5%=7.3m/s
 ! Washington Dc Dulles IntL Ar_VA_USA Extreme Annual Temperatures, Max Drybulb=-17.2°C Min Drybulb=36.2°C
 ! Washington Dc Dulles IntL Ar_VA_USA Annual Heating Design Conditions Wind Speed=2.7m/s Wind Dir=310
 ! Coldest Month=JAN
 ! Washington Dc Dulles IntL Ar_VA_USA Annual Heating 99.6%, MaxDB=-11.8°C

  SizingPeriod:DesignDay,
    Washington Dc Dulles IntL Ar Ann Htg 99.6% Condns DB,  !- Name
    1,                       !- Month
    21,                      !- Day of Month
    WinterDesignDay,         !- Day Type
    -11.8,                   !- Maximum Dry-Bulb Temperature {C}
    0.0,                     !- Daily Dry-Bulb Temperature Range {deltaC}
    DefaultMultipliers,      !- Dry-Bulb Temperature Range Modifier Type
    ,                        !- Dry-Bulb Temperature Range Modifier Day Schedule Name
    Wetbulb,                 !- Humidity Condition Type
    -11.8,                   !- Wetbulb or DewPoint at Maximum Dry-Bulb {C}
    ,                        !- Humidity Condition Day Schedule Name
    ,                        !- Humidity Ratio at Maximum Dry-Bulb {kgWater/kgDryAir}
    ,                        !- Enthalpy at Maximum Dry-Bulb {J/kg}
    ,                        !- Daily Wet-Bulb Temperature Range {deltaC}
    100344.,                 !- Barometric Pressure {Pa}
    2.7,                     !- Wind Speed {m/s}
    310,                     !- Wind Direction {deg}
    No,                      !- Rain Indicator
    No,                      !- Snow Indicator
    No,                      !- Daylight Saving Time Indicator
    ASHRAEClearSky,          !- Solar Model Indicator
    ,                        !- Beam Solar Day Schedule Name
    ,                        !- Diffuse Solar Day Schedule Name
    ,                        !- ASHRAE Clear Sky Optical Depth for Beam Irradiance (taub) {dimensionless}
    ,                        !- ASHRAE Clear Sky Optical Depth for Diffuse Irradiance (taud) {dimensionless}
    0.00;                    !- Sky Clearness

 ! Washington Dc Dulles IntL Ar_VA_USA Annual Heating 99%, MaxDB=-9°C

  SizingPeriod:DesignDay,
    Washington Dc Dulles IntL Ar Ann Htg 99% Condns DB,  !- Name
    1,                       !- Month
    21,                      !- Day of Month
    WinterDesignDay,         !- Day Type
    -9,                      !- Maximum Dry-Bulb Temperature {C}
    0.0,                     !- Daily Dry-Bulb Temperature Range {deltaC}
    DefaultMultipliers,      !- Dry-Bulb Temperature Range Modifier Type
    ,                        !- Dry-Bulb Temperature Range Modifier Day Schedule Name
    Wetbulb,                 !- Humidity Condition Type
    -9,                      !- Wetbulb or DewPoint at Maximum Dry-Bulb {C}
    ,                        !- Humidity Condition Day Schedule Name
    ,                        !- Humidity Ratio at Maximum Dry-Bulb {kgWater/kgDryAir}
    ,                        !- Enthalpy at Maximum Dry-Bulb {J/kg}
    ,                        !- Daily Wet-Bulb Temperature Range {deltaC}
    100344.,                 !- Barometric Pressure {Pa}
    2.7,                     !- Wind Speed {m/s}
    310,                     !- Wind Direction {deg}
    No,                      !- Rain Indicator
    No,                      !- Snow Indicator
    No,                      !- Daylight Saving Time Indicator
    ASHRAEClearSky,          !- Solar Model Indicator
    ,                        !- Beam Solar Day Schedule Name
    ,                        !- Diffuse Solar Day Schedule Name
    ,                        !- ASHRAE Clear Sky Optical Depth for Beam Irradiance (taub) {dimensionless}
    ,                        !- ASHRAE Clear Sky Optical Depth for Diffuse Irradiance (taud) {dimensionless}
    0.00;                    !- Sky Clearness

 ! Washington Dc Dulles IntL Ar_VA_USA Annual Humidification 99.6% Design Conditions DP=>MCDB, DP=-19.5°C

  SizingPeriod:DesignDay,
    Washington Dc Dulles IntL Ar Ann Hum_n 99.6% Condns DP=>MCDB,  !- Name
    1,                       !- Month
    21,                      !- Day of Month
    WinterDesignDay,         !- Day Type
    -9,                      !- Maximum Dry-Bulb Temperature {C}
    0.0,                     !- Daily Dry-Bulb Temperature Range {deltaC}
    DefaultMultipliers,      !- Dry-Bulb Temperature Range Modifier Type
    ,                        !- Dry-Bulb Temperature Range Modifier Day Schedule Name
    Dewpoint,                !- Humidity Condition Type
    -19.5,                   !- Wetbulb or DewPoint at Maximum Dry-Bulb {C}
    ,                        !- Humidity Condition Day Schedule Name
    ,                        !- Humidity Ratio at Maximum Dry-Bulb {kgWater/kgDryAir}
    ,                        !- Enthalpy at Maximum Dry-Bulb {J/kg}
    ,                        !- Daily Wet-Bulb Temperature Range {deltaC}
    100344.,                 !- Barometric Pressure {Pa}
    2.7,                     !- Wind Speed {m/s}
    310,                     !- Wind Direction {deg}
    No,                      !- Rain Indicator
    No,                      !- Snow Indicator
    No,                      !- Daylight Saving Time Indicator
    ASHRAEClearSky,          !- Solar Model Indicator
    ,                        !- Beam Solar Day Schedule Name
    ,                        !- Diffuse Solar Day Schedule Name
    ,                        !- ASHRAE Clear Sky Optical Depth for Beam Irradiance (taub) {dimensionless}
    ,                        !- ASHRAE Clear Sky Optical Depth for Diffuse Irradiance (taud) {dimensionless}
    0.00;                    !- Sky Clearness

 ! Washington Dc Dulles IntL Ar_VA_USA Annual Humidification 99% Design Conditions DP=>MCDB, DP=-16.7°C

  SizingPeriod:DesignDay,
    Washington Dc Dulles IntL Ar Ann Hum_n 99% Condns DP=>MCDB,  !- Name
    1,                       !- Month
    21,                      !- Day of Month
    WinterDesignDay,         !- Day Type
    -6.5,                    !- Maximum Dry-Bulb Temperature {C}
    0.0,                     !- Daily Dry-Bulb Temperature Range {deltaC}
    DefaultMultipliers,      !- Dry-Bulb Temperature Range Modifier Type
    ,                        !- Dry-Bulb Temperature Range Modifier Day Schedule Name
    Dewpoint,                !- Humidity Condition Type
    -16.7,                   !- Wetbulb or DewPoint at Maximum Dry-Bulb {C}
    ,                        !- Humidity Condition Day Schedule Name
    ,                        !- Humidity Ratio at Maximum Dry-Bulb {kgWater/kgDryAir}
    ,                        !- Enthalpy at Maximum Dry-Bulb {J/kg}
    ,                        !- Daily Wet-Bulb Temperature Range {deltaC}
    100344.,                 !- Barometric Pressure {Pa}
    2.7,                     !- Wind Speed {m/s}
    310,                     !- Wind Direction {deg}
    No,                      !- Rain Indicator
    No,                      !- Snow Indicator
    No,                      !- Daylight Saving Time Indicator
    ASHRAEClearSky,          !- Solar Model Indicator
    ,                        !- Beam Solar Day Schedule Name
    ,                        !- Diffuse Solar Day Schedule Name
    ,                        !- ASHRAE Clear Sky Optical Depth for Beam Irradiance (taub) {dimensionless}
    ,                        !- ASHRAE Clear Sky Optical Depth for Diffuse Irradiance (taud) {dimensionless}
    0.00;                    !- Sky Clearness

 ! Washington Dc Dulles IntL Ar_VA_USA Annual Heating Wind 99.6% Design Conditions WS=>MCDB, WS=11.2m/s

  SizingPeriod:DesignDay,
    Washington Dc Dulles IntL Ar Ann Htg Wind 99.6% Condns WS=>MCDB,  !- Name
    1,                       !- Month
    21,                      !- Day of Month
    WinterDesignDay,         !- Day Type
    0.8,                     !- Maximum Dry-Bulb Temperature {C}
    0.0,                     !- Daily Dry-Bulb Temperature Range {deltaC}
    DefaultMultipliers,      !- Dry-Bulb Temperature Range Modifier Type
    ,                        !- Dry-Bulb Temperature Range Modifier Day Schedule Name
    Wetbulb,                 !- Humidity Condition Type
    0.8,                     !- Wetbulb or DewPoint at Maximum Dry-Bulb {C}
    ,                        !- Humidity Condition Day Schedule Name
    ,                        !- Humidity Ratio at Maximum Dry-Bulb {kgWater/kgDryAir}
    ,                        !- Enthalpy at Maximum Dry-Bulb {J/kg}
    ,                        !- Daily Wet-Bulb Temperature Range {deltaC}
    100344.,                 !- Barometric Pressure {Pa}
    11.2,                    !- Wind Speed {m/s}
    310,                     !- Wind Direction {deg}
    No,                      !- Rain Indicator
    No,                      !- Snow Indicator
    No,                      !- Daylight Saving Time Indicator
    ASHRAEClearSky,          !- Solar Model Indicator
    ,                        !- Beam Solar Day Schedule Name
    ,                        !- Diffuse Solar Day Schedule Name
    ,                        !- ASHRAE Clear Sky Optical Depth for Beam Irradiance (taub) {dimensionless}
    ,                        !- ASHRAE Clear Sky Optical Depth for Diffuse Irradiance (taud) {dimensionless}
    0.00;                    !- Sky Clearness

 ! Washington Dc Dulles IntL Ar_VA_USA Annual Heating Wind 99% Design Conditions WS=>MCDB, WS=10.3m/s

  SizingPeriod:DesignDay,
    Washington Dc Dulles IntL Ar Ann Htg Wind 99% Condns WS=>MCDB,  !- Name
    1,                       !- Month
    21,                      !- Day of Month
    WinterDesignDay,         !- Day Type
    0.6,                     !- Maximum Dry-Bulb Temperature {C}
    0.0,                     !- Daily Dry-Bulb Temperature Range {deltaC}
    DefaultMultipliers,      !- Dry-Bulb Temperature Range Modifier Type
    ,                        !- Dry-Bulb Temperature Range Modifier Day Schedule Name
    Wetbulb,                 !- Humidity Condition Type
    0.6,                     !- Wetbulb or DewPoint at Maximum Dry-Bulb {C}
    ,                        !- Humidity Condition Day Schedule Name
    ,                        !- Humidity Ratio at Maximum Dry-Bulb {kgWater/kgDryAir}
    ,                        !- Enthalpy at Maximum Dry-Bulb {J/kg}
    ,                        !- Daily Wet-Bulb Temperature Range {deltaC}
    100344.,                 !- Barometric Pressure {Pa}
    10.3,                    !- Wind Speed {m/s}
    310,                     !- Wind Direction {deg}
    No,                      !- Rain Indicator
    No,                      !- Snow Indicator
    No,                      !- Daylight Saving Time Indicator
    ASHRAEClearSky,          !- Solar Model Indicator
    ,                        !- Beam Solar Day Schedule Name
    ,                        !- Diffuse Solar Day Schedule Name
    ,                        !- ASHRAE Clear Sky Optical Depth for Beam Irradiance (taub) {dimensionless}
    ,                        !- ASHRAE Clear Sky Optical Depth for Diffuse Irradiance (taud) {dimensionless}
    0.00;                    !- Sky Clearness

 ! Washington Dc Dulles IntL Ar Annual Cooling Design Conditions Wind Speed=4m/s Wind Dir=290
 ! Hottest Month=JUL
 ! Washington Dc Dulles IntL Ar_VA_USA Annual Cooling (DB=>MWB) .4%, MaxDB=34.1°C MWB=23.9°C

  SizingPeriod:DesignDay,
    Washington Dc Dulles IntL Ar Ann Clg .4% Condns DB=>MWB,  !- Name
    7,                       !- Month
    21,                      !- Day of Month
    SummerDesignDay,         !- Day Type
    34.1,                    !- Maximum Dry-Bulb Temperature {C}
    11.4,                    !- Daily Dry-Bulb Temperature Range {deltaC}
    DefaultMultipliers,      !- Dry-Bulb Temperature Range Modifier Type
    ,                        !- Dry-Bulb Temperature Range Modifier Day Schedule Name
    Wetbulb,                 !- Humidity Condition Type
    23.9,                    !- Wetbulb or DewPoint at Maximum Dry-Bulb {C}
    ,                        !- Humidity Condition Day Schedule Name
    ,                        !- Humidity Ratio at Maximum Dry-Bulb {kgWater/kgDryAir}
    ,                        !- Enthalpy at Maximum Dry-Bulb {J/kg}
    ,                        !- Daily Wet-Bulb Temperature Range {deltaC}
    100344.,                 !- Barometric Pressure {Pa}
    4,                       !- Wind Speed {m/s}
    290,                     !- Wind Direction {deg}
    No,                      !- Rain Indicator
    No,                      !- Snow Indicator
    No,                      !- Daylight Saving Time Indicator
    ASHRAETau,               !- Solar Model Indicator
    ,                        !- Beam Solar Day Schedule Name
    ,                        !- Diffuse Solar Day Schedule Name
    0.544,                   !- ASHRAE Clear Sky Optical Depth for Beam Irradiance (taub) {dimensionless}
    1.787;                   !- ASHRAE Clear Sky Optical Depth for Diffuse Irradiance (taud) {dimensionless}

 ! Washington Dc Dulles IntL Ar_VA_USA Annual Cooling (DB=>MWB) 1%, MaxDB=32.7°C MWB=23.5°C

  SizingPeriod:DesignDay,
    Washington Dc Dulles IntL Ar Ann Clg 1% Condns DB=>MWB,  !- Name
    7,                       !- Month
    21,                      !- Day of Month
    SummerDesignDay,         !- Day Type
    32.7,                    !- Maximum Dry-Bulb Temperature {C}
    11.4,                    !- Daily Dry-Bulb Temperature Range {deltaC}
    DefaultMultipliers,      !- Dry-Bulb Temperature Range Modifier Type
    ,                        !- Dry-Bulb Temperature Range Modifier Day Schedule Name
    Wetbulb,                 !- Humidity Condition Type
    23.5,                    !- Wetbulb or DewPoint at Maximum Dry-Bulb {C}
    ,                        !- Humidity Condition Day Schedule Name
    ,                        !- Humidity Ratio at Maximum Dry-Bulb {kgWater/kgDryAir}
    ,                        !- Enthalpy at Maximum Dry-Bulb {J/kg}
    ,                        !- Daily Wet-Bulb Temperature Range {deltaC}
    100344.,                 !- Barometric Pressure {Pa}
    4,                       !- Wind Speed {m/s}
    290,                     !- Wind Direction {deg}
    No,                      !- Rain Indicator
    No,                      !- Snow Indicator
    No,                      !- Daylight Saving Time Indicator
    ASHRAETau,               !- Solar Model Indicator
    ,                        !- Beam Solar Day Schedule Name
    ,                        !- Diffuse Solar Day Schedule Name
    0.544,                   !- ASHRAE Clear Sky Optical Depth for Beam Irradiance (taub) {dimensionless}
    1.787;                   !- ASHRAE Clear Sky Optical Depth for Diffuse Irradiance (taud) {dimensionless}

 ! Washington Dc Dulles IntL Ar_VA_USA Annual Cooling (DB=>MWB) 2%, MaxDB=31.2°C MWB=22.8°C

  SizingPeriod:DesignDay,
    Washington Dc Dulles IntL Ar Ann Clg 2% Condns DB=>MWB,  !- Name
    7,                       !- Month
    21,                      !- Day of Month
    SummerDesignDay,         !- Day Type
    31.2,                    !- Maximum Dry-Bulb Temperature {C}
    11.4,                    !- Daily Dry-Bulb Temperature Range {deltaC}
    DefaultMultipliers,      !- Dry-Bulb Temperature Range Modifier Type
    ,                        !- Dry-Bulb Temperature Range Modifier Day Schedule Name
    Wetbulb,                 !- Humidity Condition Type
    22.8,                    !- Wetbulb or DewPoint at Maximum Dry-Bulb {C}
    ,                        !- Humidity Condition Day Schedule Name
    ,                        !- Humidity Ratio at Maximum Dry-Bulb {kgWater/kgDryAir}
    ,                        !- Enthalpy at Maximum Dry-Bulb {J/kg}
    ,                        !- Daily Wet-Bulb Temperature Range {deltaC}
    100344.,                 !- Barometric Pressure {Pa}