!-Generator IDFEditor 1.38a
!-Option OriginalOrderTop UseSpecialFormat
!-NOTE: All comments with '!-' are ignored by the IDFEditor and are generated automatically.
!-      Use '!' comments if they need to be retained when using the IDFEditor.
! AirflowNetwork_MultiZone_House_OvercoolDehumid.idf
! Basic file description:  A 186 m^2 (2000 ft^2) residential house with slab-on-grade.
!
! Highlights:              This example file demonstrates zone air high relative humidity control using
!                          TemperatureAndHumidity thermostat object. This control option reduces (Overcools)
!                          the zone air cooling setpoint temperature to enhance zone air dehumidification.
!                          Also this file does the basic test of an air distribution system in a residential home.
!                          It provides forced ventilation during system on period and natural ventilation via
!                          SIMPLE airflow model during system off period.
!
!
! Simulation Location/Run: ASHRAE 2009 Annual Design Conditions, 2 design days, 2 run periods,
!                          Run Control executes the design days only.
!
! Location:                Miami Intl Ap,FL,USA,TMY3,722020
!
! Design Days:             Miami Intl Ap_FL_USA Annual Heating 99%, MaxDB=10.9°C
!                          Miami Intl Ap_FL_USA Annual Cooling (DB=>MWB) 1%, MaxDB=32.6°C MWB=25.3°C
!
! Run Period (Weather File): Winter 1/14, Summer 7/7, Miami, Fl, WMO=722020
!
! Run Control:             No zone or system sizing, design day simulation.
!
! Building:                There are 3 zones (living space, garage and attic). The living zone is conditioned.
!                          The other two zones (garage and attic) are unconditioned. Supply ducts are located
!                          in the attic zone and return ducts are located in the garage zone. Supply leaks are
!                          terminated in the attic zone, while return leaks originate in the garage.
!                          Building aspect ratio: 1:1.6
!
! Control logic:
!           When Air Distribution system and Simple Air Flow models are used together, the AirflowNetwork model overwrite
!           zone infiltration, ventilation and mixing calculated by the Simple Air Flow model when the HVAC system operates
!           (only for the zones included in theAirflowNetwork simulation).
!
! Floor Area:        186 m^2 (2000 ft^2)
! Number of Stories: 1
!
! Zone Description Details (No attic zone):
!
!                         (10.323,16.876,0)       (17.242,16.876,0)
!                                       _________________
!                                      |                 |
!                                      |                 |
!                                      |                 |
!                                      |     Garage      |
!                                      |                 |
!                                      |                 |
!         (0,10.788,0)                 |                 |
!           ___              __________|_________________| (17.242,10.778,0)
!          |   **************                            |
!           *                                           *
!           *                                            *
!           *                                            *
!           *        Living                              *      window = *
!           *                                            *
!           *                                            *
!          |                                             |
!          |___**************____________________________|
!
!      (0,0,0)                                     (17.242,0,0)
! Internal gains description:     ZONE Living  - Lighting, Refrigerator, Clothes Washer, Clothes Dryer Electric,
!                                                Dish Washers, Range Electric, Plug Loads, and People
!
! Interzone Surfaces:             Interzone surfaces among living, garage, and attic (see diagram)
! Internal Mass:                  186 m2 'FURNITURE', 66 cm wood
! People:                         3
! Lights:                         656.30 W
! Refrigerator                     91.09 W
! Clothes Washer                   24.74 W
! Clothes Dryer Electric          185.76 W
! Dish Washers                     62.57 W
! Range Electric                  248.19 W
! Plug Loads                      567.31 W
! Windows:                        4 in the living zone
! Detached Shading:               None
! Daylight:                       None
! Natural Ventilation:            AirflowNetwork Multizone
! Compact Schedules:              Yes
! Solair Distribution:            None
!
! HVAC:                           A unitary system of AirLoopHVAC:UnitaryHeatCool provides space cooling and heating.
!                                 The system has a reheat coil as Coil:Heating:Fuel.
!                                 Thermostat setting at 22.22C(72F) for space heating and 25.56C(78F) for space cooling.
!                                 And the space relative humidity was kept at 45%.  The zone overcool constant range is
!                                 2C and overcool control ratio is 3.0 [%/deltaC ]
!
! Zonal Equipment:                Living Zone - Direct Air
! Central Air Handling Equipment: Yes
! System Equipment Autosize:      No
! Purchased Cooling:              No
! Purchased Heating:              No
! Purchased Chilled Water:        No
! Purchased Hot Water:            No
! Cooling Coil:                   Coil:Cooling:DX:SingleSpeed
! Heating Coil:                   Coil:Heating:Fuel
! Reeat Coil:                     Coil:Heating:Fuel
! Pumps:                          None
! Boilers:                        None
! Chillers:                       None
! Towers:                         None
!
! Results:
! Standard Reports:               None
! Timestep or Hourly Variables:   Timestep
! Time bins Report:               None
! HTML Report:                    None
! Environmental Emissions:        None
! Utility Tariffs:                None
!

  Version,9.3;

  Building,
    House with AirflowNetwork simulation,  !- Name
    0,                       !- North Axis {deg}
    Suburbs,                 !- Terrain
    0.001,                   !- Loads Convergence Tolerance Value {W}
    0.0050000,               !- Temperature Convergence Tolerance Value {deltaC}
    FullInteriorAndExterior, !- Solar Distribution
    25,                      !- Maximum Number of Warmup Days
    6;                       !- Minimum Number of Warmup Days

  Timestep,6;

  SurfaceConvectionAlgorithm:Inside,TARP;

  SurfaceConvectionAlgorithm:Outside,DOE-2;

  HeatBalanceAlgorithm,ConductionTransferFunction;

  ZoneCapacitanceMultiplier:ResearchSpecial,
    Multiplier,              !- Name
    ,                        !- Zone or ZoneList Name
    10,                      !- Temperature Capacity Multiplier
    15,                      !- Humidity Capacity Multiplier
    1,                       !- Carbon Dioxide Capacity Multiplier
    ;                        !- Generic Contaminant Capacity Multiplier

  SimulationControl,
    Yes,                     !- Do Zone Sizing Calculation
    Yes,                     !- Do System Sizing Calculation
    No,                      !- Do Plant Sizing Calculation
    No,                      !- Run Simulation for Sizing Periods
    Yes;                     !- Run Simulation for Weather File Run Periods

  RunPeriod,
    Run Period 1,            !- Name
    8,                       !- Begin Month
    16,                      !- Begin Day of Month
    ,                        !- Begin Year
    8,                       !- End Month
    19,                      !- End Day of Month
    ,                        !- End Year
    Tuesday,                 !- Day of Week for Start Day
    Yes,                     !- Use Weather File Holidays and Special Days
    Yes,                     !- Use Weather File Daylight Saving Period
    No,                      !- Apply Weekend Holiday Rule
    Yes,                     !- Use Weather File Rain Indicators
    Yes;                     !- Use Weather File Snow Indicators

  Site:Location,
    Miami Intl Ap_FL_USA Design_Conditions,  !- Name
    25.82,                   !- Latitude {deg}
    -80.30,                  !- Longitude {deg}
    -5.00,                   !- Time Zone {hr}
    11.00;                   !- Elevation {m}

 ! Miami Intl Ap_FL_USA Annual Heating 99%, MaxDB=10.9°C

  SizingPeriod:DesignDay,
    Miami Intl Ap Ann Htg 99% Condns DB,  !- Name
    1,                       !- Month
    21,                      !- Day of Month
    WinterDesignDay,         !- Day Type
    10.9,                    !- Maximum Dry-Bulb Temperature {C}
    0.0,                     !- Daily Dry-Bulb Temperature Range {deltaC}
    ,                        !- Dry-Bulb Temperature Range Modifier Type
    ,                        !- Dry-Bulb Temperature Range Modifier Day Schedule Name
    Wetbulb,                 !- Humidity Condition Type
    10.9,                    !- Wetbulb or DewPoint at Maximum Dry-Bulb {C}
    ,                        !- Humidity Condition Day Schedule Name
    ,                        !- Humidity Ratio at Maximum Dry-Bulb {kgWater/kgDryAir}
    ,                        !- Enthalpy at Maximum Dry-Bulb {J/kg}
    ,                        !- Daily Wet-Bulb Temperature Range {deltaC}
    101193.,                 !- Barometric Pressure {Pa}
    3.8,                     !- Wind Speed {m/s}
    340,                     !- Wind Direction {deg}
    No,                      !- Rain Indicator
    No,                      !- Snow Indicator
    No,                      !- Daylight Saving Time Indicator
    ASHRAEClearSky,          !- Solar Model Indicator
    ,                        !- Beam Solar Day Schedule Name
    ,                        !- Diffuse Solar Day Schedule Name
    ,                        !- ASHRAE Clear Sky Optical Depth for Beam Irradiance (taub) {dimensionless}
    ,                        !- ASHRAE Clear Sky Optical Depth for Diffuse Irradiance (taud) {dimensionless}
    0.00;                    !- Sky Clearness

 ! Miami Intl Ap_FL_USA Annual Cooling (DB=>MWB) 1%, MaxDB=32.6°C MWB=25.3°C

  SizingPeriod:DesignDay,
    Miami Intl Ap Ann Clg 1% Condns DB=>MWB,  !- Name
    7,                       !- Month
    21,                      !- Day of Month
    SummerDesignDay,         !- Day Type
    32.6,                    !- Maximum Dry-Bulb Temperature {C}
    6.7,                     !- Daily Dry-Bulb Temperature Range {deltaC}
    ,                        !- Dry-Bulb Temperature Range Modifier Type
    ,                        !- Dry-Bulb Temperature Range Modifier Day Schedule Name
    Wetbulb,                 !- Humidity Condition Type
    25.3,                    !- Wetbulb or DewPoint at Maximum Dry-Bulb {C}
    ,                        !- Humidity Condition Day Schedule Name
    ,                        !- Humidity Ratio at Maximum Dry-Bulb {kgWater/kgDryAir}
    ,                        !- Enthalpy at Maximum Dry-Bulb {J/kg}
    ,                        !- Daily Wet-Bulb Temperature Range {deltaC}
    101193.,                 !- Barometric Pressure {Pa}
    4.5,                     !- Wind Speed {m/s}
    140,                     !- Wind Direction {deg}
    No,                      !- Rain Indicator
    No,                      !- Snow Indicator
    No,                      !- Daylight Saving Time Indicator
    ASHRAEClearSky,          !- Solar Model Indicator
    ,                        !- Beam Solar Day Schedule Name
    ,                        !- Diffuse Solar Day Schedule Name
    ,                        !- ASHRAE Clear Sky Optical Depth for Beam Irradiance (taub) {dimensionless}
    ,                        !- ASHRAE Clear Sky Optical Depth for Diffuse Irradiance (taud) {dimensionless}
    1.00;                    !- Sky Clearness

! new boundary temperature Miami, calculated using slab.exe of energyPlus auxiliary programs.

  Site:GroundTemperature:BuildingSurface,20.59,20.82,21.14,21.65,22.05,22.91,23.08,22.36,21.97,21.44,21.05,20.68;

  Material,
    A1 - 1 IN STUCCO,        !- Name
    Smooth,                  !- Roughness
    2.5389841E-02,           !- Thickness {m}
    0.6918309,               !- Conductivity {W/m-K}
    1858.142,                !- Density {kg/m3}
    836.8000,                !- Specific Heat {J/kg-K}
    0.9000000,               !- Thermal Absorptance
    0.9200000,               !- Solar Absorptance
    0.9200000;               !- Visible Absorptance

! CC Blk 8 in HW Hol.

  Material,
    CB11,                    !- Name
    MediumRough,             !- Roughness
    0.2032000,               !- Thickness {m}
    1.048000,                !- Conductivity {W/m-K}
    1105.000,                !- Density {kg/m3}
    837.0000,                !- Specific Heat {J/kg-K}
    0.9000000,               !- Thermal Absorptance
    0.2000000,               !- Solar Absorptance
    0.2000000;               !- Visible Absorptance

! Gyps or Plast Brd 1/2 in

  Material,
    GP01,                    !- Name
    MediumSmooth,            !- Roughness
    1.2700000E-02,           !- Thickness {m}
    0.1600000,               !- Conductivity {W/m-K}
    801.0000,                !- Density {kg/m3}
    837.0000,                !- Specific Heat {J/kg-K}
    0.9000000,               !- Thermal Absorptance
    0.7500000,               !- Solar Absorptance
    0.7500000;               !- Visible Absorptance

! Min.Wool/Fib Batt R-11

  Material,
    IN02,                    !- Name
    Rough,                   !- Roughness
    9.0099998E-02,           !- Thickness {m}
    4.3000001E-02,           !- Conductivity {W/m-K}
    10.00000,                !- Density {kg/m3}
    837.0000,                !- Specific Heat {J/kg-K}
    0.9000000,               !- Thermal Absorptance
    0.7500000,               !- Solar Absorptance
    0.7500000;               !- Visible Absorptance

! Min.Wool/Fib Batt R-30

  Material,
    IN05,                    !- Name
    Rough,                   !- Roughness
    0.2458000,               !- Thickness {m}
    4.3000001E-02,           !- Conductivity {W/m-K}
    10.00000,                !- Density {kg/m3}
    837.0000,                !- Specific Heat {J/kg-K}
    0.9000000,               !- Thermal Absorptance
    0.7500000,               !- Solar Absorptance
    0.7500000;               !- Visible Absorptance

! Plywood1/2 in

  Material,
    PW03,                    !- Name
    MediumSmooth,            !- Roughness
    1.2700000E-02,           !- Thickness {m}
    0.1150000,               !- Conductivity {W/m-K}
    545.0000,                !- Density {kg/m3}
    1213.000,                !- Specific Heat {J/kg-K}
    0.9000000,               !- Thermal Absorptance
    0.7800000,               !- Solar Absorptance
    0.7800000;               !- Visible Absorptance

! CC HW Dr.  140 lbs 4 in

  Material,
    CC03,                    !- Name
    MediumRough,             !- Roughness
    0.1016000,               !- Thickness {m}
    1.310000,                !- Conductivity {W/m-K}
    2243.000,                !- Density {kg/m3}
    837.0000,                !- Specific Heat {J/kg-K}
    0.9000000,               !- Thermal Absorptance
    0.6500000,               !- Solar Absorptance
    0.6500000;               !- Visible Absorptance

! STEEL SIDING LW

  Material,
    HF-A3,                   !- Name
    Smooth,                  !- Roughness
    1.5000000E-03,           !- Thickness {m}
    44.96960,                !- Conductivity {W/m-K}
    7689.000,                !- Density {kg/m3}
    418.0000,                !- Specific Heat {J/kg-K}
    0.9000000,               !- Thermal Absorptance
    0.2000000,               !- Solar Absorptance
    0.2000000;               !- Visible Absorptance

! Asphalt Shingle and Siding

  Material:NoMass,
    AR02,                    !- Name
    VeryRough,               !- Roughness
    7.8000002E-02,           !- Thermal Resistance {m2-K/W}
    0.9000000,               !- Thermal Absorptance
    0.7000000,               !- Solar Absorptance
    0.7000000;               !- Visible Absorptance

! Carpet With Rubber Pad

  Material:NoMass,
    CP02,                    !- Name
    Rough,                   !- Roughness
    0.2170000,               !- Thermal Resistance {m2-K/W}
    0.9000000,               !- Thermal Absorptance
    0.7500000,               !- Solar Absorptance
    0.7500000;               !- Visible Absorptance

! furniture, 66 cm wood

  Material,
    WD10,                    !- Name
    MediumSmooth,            !- Roughness
    0.667,                   !- Thickness {m}
    0.115,                   !- Conductivity {W/m-K}
    513,                     !- Density {kg/m3}
    1381,                    !- Specific Heat {J/kg-K}
    0.9,                     !- Thermal Absorptance
    0.78,                    !- Solar Absorptance
    0.78;                    !- Visible Absorptance

! ID 2

  WindowMaterial:Glazing,
    CLEAR 3MM,               !- Name
    SpectralAverage,         !- Optical Data Type
    ,                        !- Window Glass Spectral Data Set Name
    0.003,                   !- Thickness {m}
    0.837,                   !- Solar Transmittance at Normal Incidence
    0.075,                   !- Front Side Solar Reflectance at Normal Incidence
    0.075,                   !- Back Side Solar Reflectance at Normal Incidence
    0.898,                   !- Visible Transmittance at Normal Incidence
    0.081,                   !- Front Side Visible Reflectance at Normal Incidence
    0.081,                   !- Back Side Visible Reflectance at Normal Incidence
    0.0,                     !- Infrared Transmittance at Normal Incidence
    0.84,                    !- Front Side Infrared Hemispherical Emissivity
    0.84,                    !- Back Side Infrared Hemispherical Emissivity
    0.9;                     !- Conductivity {W/m-K}

! ID 400

  WindowMaterial:Glazing,
    LoE CLEAR 3MM,           !- Name
    SpectralAverage,         !- Optical Data Type
    ,                        !- Window Glass Spectral Data Set Name
    0.003,                   !- Thickness {m}
    0.630,                   !- Solar Transmittance at Normal Incidence
    0.190,                   !- Front Side Solar Reflectance at Normal Incidence
    0.220,                   !- Back Side Solar Reflectance at Normal Incidence
    0.850,                   !- Visible Transmittance at Normal Incidence
    0.056,                   !- Front Side Visible Reflectance at Normal Incidence
    0.079,                   !- Back Side Visible Reflectance at Normal Incidence
    0.0,                     !- Infrared Transmittance at Normal Incidence
    0.84,                    !- Front Side Infrared Hemispherical Emissivity
    0.10,                    !- Back Side Infrared Hemispherical Emissivity
    0.9;                     !- Conductivity {W/m-K}

! ID 400 reversed

  WindowMaterial:Glazing,
    LoE CLEAR 3MM Rev,       !- Name
    SpectralAverage,         !- Optical Data Type
    ,                        !- Window Glass Spectral Data Set Name
    0.003,                   !- Thickness {m}
    0.630,                   !- Solar Transmittance at Normal Incidence
    0.220,                   !- Front Side Solar Reflectance at Normal Incidence
    0.190,                   !- Back Side Solar Reflectance at Normal Incidence
    0.850,                   !- Visible Transmittance at Normal Incidence
    0.079,                   !- Front Side Visible Reflectance at Normal Incidence
    0.056,                   !- Back Side Visible Reflectance at Normal Incidence
    0.0,                     !- Infrared Transmittance at Normal Incidence
    0.10,                    !- Front Side Infrared Hemispherical Emissivity
    0.84,                    !- Back Side Infrared Hemispherical Emissivity
    0.9;                     !- Conductivity {W/m-K}

  WindowMaterial:Gas,
    AIR 6MM,                 !- Name
    AIR,                     !- Gas Type
    0.006;                   !- Thickness {m}

  Construction,
    EXTWALL:LIVING,          !- Name
    A1 - 1 IN STUCCO,        !- Outside Layer
    CB11,                    !- Layer 2
    GP01;                    !- Layer 3

  Construction,
    INTERIORWall,            !- Name
    GP01,                    !- Outside Layer
    IN02,                    !- Layer 2
    GP01;                    !- Layer 3

  Construction,
    FLOOR:GARAGE,            !- Name
    CC03;                    !- Outside Layer

  Construction,
    FLOOR:LIVING,            !- Name
    CC03,                    !- Outside Layer
    CP02;                    !- Layer 2

  Construction,
    ROOF,                    !- Name
    AR02,                    !- Outside Layer
    PW03;                    !- Layer 2

  Construction,
    EXTWALL:GARAGE,          !- Name
    A1 - 1 IN STUCCO,        !- Outside Layer
    CB11;                    !- Layer 2

  Construction,
    CEILING:LIVING,          !- Name
    IN05,                    !- Outside Layer
    GP01;                    !- Layer 2

  Construction,
    reverseCEILING:LIVING,   !- Name
    GP01,                    !- Outside Layer
    IN05;                    !- Layer 2

  Construction,
    GABLE,                   !- Name
    PW03;                    !- Outside Layer

  Construction,
    FURNITURE,               !- Name
    WD10;                    !- Outside Layer

  Construction,
    Dbl Clr 3mm/6mm Air,     !- Name
    LoE CLEAR 3MM,           !- Outside Layer
    AIR 6MM,                 !- Layer 2
    LoE CLEAR 3MM Rev;       !- Layer 3

  Construction,
    Garage:SteelDoor,        !- Name
    HF-A3;                   !- Outside Layer

  Construction,
    CEILING:Garage,          !- Name
    GP01;                    !- Outside Layer

  Zone,
    LIVING ZONE,             !- Name
    0,                       !- Direction of Relative North {deg}
    0,                       !- X Origin {m}
    0,                       !- Y Origin {m}
    0,                       !- Z Origin {m}
    1,                       !- Type
    1,                       !- Multiplier
    autocalculate,           !- Ceiling Height {m}
    autocalculate;           !- Volume {m3}

  Sizing:Zone,
    LIVING ZONE,             !- Zone or ZoneList Name
    SupplyAirTemperature,    !- Zone Cooling Design Supply Air Temperature Input Method
    16.,                     !- Zone Cooling Design Supply Air Temperature {C}
    ,                        !- Zone Cooling Design Supply Air Temperature Difference {deltaC}
    SupplyAirTemperature,    !- Zone Heating Design Supply Air Temperature Input Method
    50.,                     !- Zone Heating Design Supply Air Temperature {C}
    ,                        !- Zone Heating Design Supply Air Temperature Difference {deltaC}
    0.009,                   !- Zone Cooling Design Supply Air Humidity Ratio {kgWater/kgDryAir}
    0.004,                   !- Zone Heating Design Supply Air Humidity Ratio {kgWater/kgDryAir}
    SZ DSOA LIVING ZONE,     !- Design Specification Outdoor Air Object Name
    0.0,                     !- Zone Heating Sizing Factor
    0.0,                     !- Zone Cooling Sizing Factor
    DesignDay,               !- Cooling Design Air Flow Method
    0,                       !- Cooling Design Air Flow Rate {m3/s}
    ,                        !- Cooling Minimum Air Flow per Zone Floor Area {m3/s-m2}
    ,                        !- Cooling Minimum Air Flow {m3/s}
    ,                        !- Cooling Minimum Air Flow Fraction
    DesignDay,               !- Heating Design Air Flow Method
    0,                       !- Heating Design Air Flow Rate {m3/s}
    ,                        !- Heating Maximum Air Flow per Zone Floor Area {m3/s-m2}
    ,                        !- Heating Maximum Air Flow {m3/s}
    ,                        !- Heating Maximum Air Flow Fraction
    ,                        !- Design Specification Zone Air Distribution Object Name
    No,                      !- Account for Dedicated Outdoor Air System
    NeutralSupplyAir,        !- Dedicated Outdoor Air System Control Strategy
    autosize,                !- Dedicated Outdoor Air Low Setpoint Temperature for Design {C}
    autosize;                !- Dedicated Outdoor Air High Setpoint Temperature for Design {C}

  DesignSpecification:OutdoorAir,
    SZ DSOA LIVING ZONE,     !- Name
    Sum,                     !- Outdoor Air Method
    0.00472,                 !- Outdoor Air Flow per Person {m3/s-person}
    0.000508,                !- Outdoor Air Flow per Zone Floor Area {m3/s-m2}
    0.0;                     !- Outdoor Air Flow per Zone {m3/s}

  Zone,
    GARAGE ZONE,             !- Name
    0,                       !- Direction of Relative North {deg}
    0,                       !- X Origin {m}
    0,                       !- Y Origin {m}
    0,                       !- Z Origin {m}
    1,                       !- Type
    1,                       !- Multiplier
    autocalculate,           !- Ceiling Height {m}
    autocalculate;           !- Volume {m3}

  Zone,
    ATTIC ZONE,              !- Name
    0,                       !- Direction of Relative North {deg}
    0,                       !- X Origin {m}
    0,                       !- Y Origin {m}
    0,                       !- Z Origin {m}
    1,                       !- Type
    1,                       !- Multiplier
    autocalculate,           !- Ceiling Height {m}
    autocalculate;           !- Volume {m3}

  GlobalGeometryRules,
    UpperLeftCorner,         !- Starting Vertex Position
    CounterClockWise,        !- Vertex Entry Direction
    World;                   !- Coordinate System

  BuildingSurface:Detailed,
    Living:North,            !- Name
    Wall,                    !- Surface Type
    EXTWALL:LIVING,          !- Construction Name
    LIVING ZONE,             !- Zone Name
    Outdoors,                !- Outside Boundary Condition
    ,                        !- Outside Boundary Condition Object
    SunExposed,              !- Sun Exposure
    WindExposed,             !- Wind Exposure
    0.5000000,               !- View Factor to Ground
    4,                       !- Number of Vertices
    10.323,10.778,2.4384,  !- X,Y,Z ==> Vertex 1 {m}
    10.323,10.778,0,  !- X,Y,Z ==> Vertex 2 {m}
    0,10.778,0,  !- X,Y,Z ==> Vertex 3 {m}
    0,10.778,2.4384;  !- X,Y,Z ==> Vertex 4 {m}

  BuildingSurface:Detailed,
    Living:East,             !- Name
    Wall,                    !- Surface Type
    EXTWALL:LIVING,          !- Construction Name
    LIVING ZONE,             !- Zone Name
    Outdoors,                !- Outside Boundary Condition
    ,                        !- Outside Boundary Condition Object
    SunExposed,              !- Sun Exposure
    WindExposed,             !- Wind Exposure
    0.5000000,               !- View Factor to Ground
    4,                       !- Number of Vertices
    17.242,0,2.4384,  !- X,Y,Z ==> Vertex 1 {m}
    17.242,0,0,  !- X,Y,Z ==> Vertex 2 {m}
    17.242,10.778,0,  !- X,Y,Z ==> Vertex 3 {m}
    17.242,10.778,2.4384;  !- X,Y,Z ==> Vertex 4 {m}

  BuildingSurface:Detailed,
    Living:South,            !- Name
    Wall,                    !- Surface Type
    EXTWALL:LIVING,          !- Construction Name
    LIVING ZONE,             !- Zone Name
    Outdoors,                !- Outside Boundary Condition
    ,                        !- Outside Boundary Condition Object
    SunExposed,              !- Sun Exposure
    WindExposed,             !- Wind Exposure
    0.5000000,               !- View Factor to Ground
    4,                       !- Number of Vertices
    0,0,2.4383,  !- X,Y,Z ==> Vertex 1 {m}
    0,0,0,  !- X,Y,Z ==> Vertex 2 {m}
    17.242,0,0,  !- X,Y,Z ==> Vertex 3 {m}
    17.242,0,2.4384;  !- X,Y,Z ==> Vertex 4 {m}

  BuildingSurface:Detailed,
    Living:West,             !- Name
    Wall,                    !- Surface Type
    EXTWALL:LIVING,          !- Construction Name
    LIVING ZONE,             !- Zone Name
    Outdoors,                !- Outside Boundary Condition
    ,                        !- Outside Boundary Condition Object
    SunExposed,              !- Sun Exposure
    WindExposed,             !- Wind Exposure
    0.5000000,               !- View Factor to Ground
    4,                       !- Number of Vertices
    0,10.778,2.4384,  !- X,Y,Z ==> Vertex 1 {m}
    0,10.778,0,  !- X,Y,Z ==> Vertex 2 {m}
    0,0,0,  !- X,Y,Z ==> Vertex 3 {m}
    0,0,2.4384;  !- X,Y,Z ==> Vertex 4 {m}

  BuildingSurface:Detailed,
    Garage:Interior,         !- Name
    WALL,                    !- Surface Type
    INTERIORWall,            !- Construction Name
    GARAGE ZONE,             !- Zone Name
    Surface,                 !- Outside Boundary Condition
    Living:Interior,         !- Outside Boundary Condition Object
    NoSun,                   !- Sun Exposure
    NoWind,                  !- Wind Exposure
    0.5,                     !- View Factor to Ground
    4,                       !- Number of Vertices
    10.323,10.778,2.4384,  !- X,Y,Z ==> Vertex 1 {m}
    10.323,10.778,0,  !- X,Y,Z ==> Vertex 2 {m}
    17.242,10.778,0,  !- X,Y,Z ==> Vertex 3 {m}
    17.242,10.778,2.4384;  !- X,Y,Z ==> Vertex 4 {m}

  BuildingSurface:Detailed,
    Living:Interior,         !- Name
    WALL,                    !- Surface Type
    INTERIORWall,            !- Construction Name
    LIVING ZONE,             !- Zone Name
    Surface,                 !- Outside Boundary Condition
    Garage:Interior,         !- Outside Boundary Condition Object
    NoSun,                   !- Sun Exposure
    NoWind,                  !- Wind Exposure
    0.5,                     !- View Factor to Ground
    4,                       !- Number of Vertices