!-Generator IDFEditor 1.25 'current version of IDFEditor - less than 1 is a beta
!-NOTE: All comments with '!-' are ignored by the IDFEditor and are generated automatically.
!-      Use '!' comments if they need to be retained when using the IDFEditor.
!-   ===========  ALL OBJECTS IN CLASS: VERSION ===========
! AirflowNetwork_Multizone_HorizontalOpening.idf
! Basic file description:  2-story 6-zone building with natural ventilation modeled by AirflowNetwork.
!
! Highlights:              Natural ventilation through openable exterior windows, openable interior doors, and
!                          a large horizontal opening between the first and second floor.
!
! Simulation Location/Run: CHICAGO_IL_USA TMY2-94846, 2 design days, 2 run periods,
!                          Run Control executes the design days only.
!
! Location:                Chicago, IL
!
! Design Days:             CHICAGO_IL_USA Annual Heating 99% Design Conditions DB, MaxDB= -17.3°C
!                          CHICAGO_IL_USA Annual Cooling 1% Design Conditions, MaxDB=  31.5°C MCWB=  23.0°C
!
! Run Period (Weather File): Winter 1/14, Summer 7/7, CHICAGO_IL_USA TMY2-94846
!
! Run Control:             No zone or system sizing, design day run control.
!
! Building:                Two story square building. The first story has three zones - a 40 ft x 20 ft
!                          NORTH_ZONE, with two smaller 20 ft x 20 ft zones in the southwest (WEST_ZONE) and
!                          southeast (EAST_ZONE). The NORTH_ZONE has a single 9.84 ft x 4.36 ft (3m x 1.33m)
!                          north-facing window. The WEST_ZONE has a single 13.12 ft x 4.96 ft (4m x 1.5m)
!                          south-facing window. There is a 3.28 ft x 6.56 ft (1m x 2m) door between the
!                          NORTH_ZONE and WEST_ZONE. All vertical surfaces are also modeled with cracks for
!                          uncontrolled infiltration. The second floor has the same floor plan as the first
!                          floor and has a and a flat roof with no plenum. There is a horizontal opening between
!                          NORTH_ZONE and NORTH_ZONE_T to allow a possible two-way airflow across the opening.
!                          The construction with a Material:InfraredTransparent material.
! Floor Area:              297.2 m2
! Number of Stories:       2
!
! Zone Description Details: Symbols for openable windows ([ ]), openable door (] [) and cracks (//) in the first
!                           floor.
!
!
!                        * External Node
!                          NFacade
!         (0,12.19,0)                  (12,19,12.19,0)
!                      Window2    Crack
!              *******[       ]***//**********
!              |                             |
!              |                             |
!              |                             |
!              / Crack     NORTH_ZONE        / Crack
!              /                             /
!              |                             |
!              |                             |
! * External   |     DoorInSurface_3         |   * External
!   Node       ***//**]  [***********//******|     Node
!   WFacade    | Crack        |    Crack     |     EFacade
!              |              |              |
!              |              |              |
!              / Crack        / Crack        / Crack
!              /              /              /
!              |              |              |
!              |   WEST_ZONE  |  EAST_ZONE   |
!              |              |              |
!              |              |(6.10,0,0)    |
!              **//*[       ]*******//********
!                    Window1      Crack
!          (0,0,0)                      (12,19,0,0)
!
!                       * External Node
!                         SFacade
!
! Internal gains description:     NA
!
! Interzone Surfaces:             4
! Internal Mass:                  None
! People:                         4 in NORTH_ZONE, 3 in EAST_ZONE and WEST_ZONE in the first floor
!                                 4 in NORTH_ZONE_T, 3 in EAST_ZONE_T and WEST_ZONE_T in the second floor
! Lights:                         878.6 W in NORTH_ZONE, 1464.4 W in NORTH_ZONE, 878.6 W in NORTH_ZONE_T,
!                                 1464.4 W in NORTH_ZONE_T,
! Equipment:                      2928.8 W in NORTH_ZONE and WEST_ZONE, 1464.4 in EAST_ZONE,
!                                 2928.8 W in NORTH_ZONE_T and WEST_ZONE_T, 1464.4 in EAST_ZONE_T
! Windows:                        4 (3m x 1.33m in NORTH_ZONE, 4m x 1.5m in WEST_ZONE, 3m x 1.33m in NORTH_ZONE_T,
!                                 4m x 1.5m in WEST_ZONE_T)
! Door:                           2 (1m x 2m door between NORTH_ZONE and WEST_ZONE, 1m x 2m door between NORTH_ZONE_T
!                                 and WEST_ZONE_T)
! Detached Shading:               None
! Daylight:                       None
! Natural Ventilation:            AirflowNetwork
! Compact Schedules:              Yes
! Solar Distribution:             MinimalShadowing
!
! HVAC:                           NA
!
! Zonal Equipment:                NA
! Central Air Handling Equipment: No
! System Equipment Autosize:      No
! Purchased Cooling:              No
! Purchased Heating:              No
! Purchased Chilled Water:        No
! Purchased Hot Water:            No
! Coils:                          None
! Pumps:                          None
! Boilers:                        None
! Chillers:                       None
! Towers:                         None
!
! Control logic:    The ventilation is temperature controlled. Window1 and DoorInSurface_3 in WEST_ZONE
!                   are opened when
!                     (1) the previous time step air temperature in WEST_ZONE is greater than the
!                         ventilation setpoint schedule value (a fixed value of 21.1C in this run), and
!                     (2) the previous time step air temperature in WEST_ZONE is greater than the
!                         outside air temperature.
!                   Similarly, Window2 in NORTH_ZONE is opened when the previous time step air
!                   temperature in NORTH_ZONE is greater than the ventilation setpoint schedule value
!                   and the previous time step air temperature in NORTH_ZONE is greater than the
!                   outside air temperature.
!
!                   Controls to modulate the ventilation openings are applied to the WEST_ZONE and
!                   the NORTH_ZONE (see the AirflowNetwork:Multizone:Zone inputs for these zones).
!
!                   The EAST_ZONE has no natural ventilation (Ventilation Control Mode = NoVent in
!                   the AirflowNetwork:Multizone:Zone input for this zone).
!
!                   In addition to natural ventilation in two of the zones, there are cracks in all
!                   exterior and interior walls. Cracks in the exterior walls allow infiltration of
!                   outside air into the zones.  The interior doorway and cracks in the interior walls
!                   allow cross-mixing of air between zones (i.e., interzone air flow). There are no
!                   cracks in the roof surfaces.
!
!                   The above decription provide information on control logic in the first floor. The control
!                   logic in the same floor is the same as the first floor. However, there is a large horizontal
!                   opening between  NORTH_ZONE and NORTH_ZONE_T with constant ventilation control mode.
!
! Results:
! Standard Reports:               Variable Dictionary, Surfaces (dxf), Meter File
! Timestep or Hourly Variables:   Hourly and Daily
! Time bins Report:               None
! HTML Report:                    None
! Environmental Emissions:        None
! Utility Tariffs:                None

  Version,24.1;

!-   ===========  ALL OBJECTS IN CLASS: BUILDING ===========

  Building,
    AirflowNetwork 3 Zone Building,  !- Name
    0,                       !- North Axis {deg}
    Suburbs,                 !- Terrain
    3.9999999E-02,           !- Loads Convergence Tolerance Value {W}
    0.4000000,               !- Temperature Convergence Tolerance Value {deltaC}
    MinimalShadowing,        !- Solar Distribution
    25,                      !- Maximum Number of Warmup Days
    6;                       !- Minimum Number of Warmup Days

!-   ===========  ALL OBJECTS IN CLASS: Timestep ===========

  Timestep,6;

!-   ===========  ALL OBJECTS IN CLASS: INSIDE CONVECTION ALGORITHM ===========

  SurfaceConvectionAlgorithm:Inside,Simple;

!-   ===========  ALL OBJECTS IN CLASS: OUTSIDE CONVECTION ALGORITHM ===========

  SurfaceConvectionAlgorithm:Outside,SimpleCombined;

!-   ===========  ALL OBJECTS IN CLASS: SOLUTION ALGORITHM ===========

  HeatBalanceAlgorithm,ConductionTransferFunction;

!-   ===========  ALL OBJECTS IN CLASS: RUN CONTROL ===========

  SimulationControl,
    No,                      !- Do Zone Sizing Calculation
    No,                      !- Do System Sizing Calculation
    No,                      !- Do Plant Sizing Calculation
    Yes,                     !- Run Simulation for Sizing Periods
    Yes,                     !- Run Simulation for Weather File Run Periods
    No,                      !- Do HVAC Sizing Simulation for Sizing Periods
    1;                       !- Maximum Number of HVAC Sizing Simulation Passes

!-   ===========  ALL OBJECTS IN CLASS: RUNPERIOD ===========

  RunPeriod,
    Run Period 1,            !- Name
    7,                       !- Begin Month
    1,                       !- Begin Day of Month
    ,                        !- Begin Year
    7,                       !- End Month
    2,                       !- End Day of Month
    ,                        !- End Year
    ,                        !- Day of Week for Start Day
    Yes,                     !- Use Weather File Holidays and Special Days
    Yes,                     !- Use Weather File Daylight Saving Period
    No,                      !- Apply Weekend Holiday Rule
    Yes,                     !- Use Weather File Rain Indicators
    Yes;                     !- Use Weather File Snow Indicators

!-   ===========  ALL OBJECTS IN CLASS: LOCATION ===========

  Site:Location,
    CHICAGO_IL_USA TMY2-94846,  !- Name
    41.78,                   !- Latitude {deg}
    -87.75,                  !- Longitude {deg}
    -6.00,                   !- Time Zone {hr}
    190.00;                  !- Elevation {m}

!-   ===========  ALL OBJECTS IN CLASS: DESIGNDAY ===========
! CHICAGO_IL_USA Annual Heating 99% Design Conditions DB, MaxDB= -17.3°C

  SizingPeriod:DesignDay,
    CHICAGO_IL_USA Annual Heating 99% Design Conditions DB,  !- Name
    1,                       !- Month
    21,                      !- Day of Month
    WinterDesignDay,         !- Day Type
    -17.3,                   !- Maximum Dry-Bulb Temperature {C}
    0.0,                     !- Daily Dry-Bulb Temperature Range {deltaC}
    ,                        !- Dry-Bulb Temperature Range Modifier Type
    ,                        !- Dry-Bulb Temperature Range Modifier Day Schedule Name
    Wetbulb,                 !- Humidity Condition Type
    -17.3,                   !- Wetbulb or DewPoint at Maximum Dry-Bulb {C}
    ,                        !- Humidity Condition Day Schedule Name
    ,                        !- Humidity Ratio at Maximum Dry-Bulb {kgWater/kgDryAir}
    ,                        !- Enthalpy at Maximum Dry-Bulb {J/kg}
    ,                        !- Daily Wet-Bulb Temperature Range {deltaC}
    99063.,                  !- Barometric Pressure {Pa}
    4.9,                     !- Wind Speed {m/s}
    270,                     !- Wind Direction {deg}
    No,                      !- Rain Indicator
    No,                      !- Snow Indicator
    No,                      !- Daylight Saving Time Indicator
    ASHRAEClearSky,          !- Solar Model Indicator
    ,                        !- Beam Solar Day Schedule Name
    ,                        !- Diffuse Solar Day Schedule Name
    ,                        !- ASHRAE Clear Sky Optical Depth for Beam Irradiance (taub) {dimensionless}
    ,                        !- ASHRAE Clear Sky Optical Depth for Diffuse Irradiance (taud) {dimensionless}
    0.0;                     !- Sky Clearness

! CHICAGO_IL_USA Annual Cooling 1% Design Conditions, MaxDB=  31.5°C MCWB=  23.0°C

  SizingPeriod:DesignDay,
    CHICAGO_IL_USA Annual Cooling 1% Design Conditions DB/MCWB,  !- Name
    7,                       !- Month
    21,                      !- Day of Month
    SummerDesignDay,         !- Day Type
    31.5,                    !- Maximum Dry-Bulb Temperature {C}
    10.7,                    !- Daily Dry-Bulb Temperature Range {deltaC}
    ,                        !- Dry-Bulb Temperature Range Modifier Type
    ,                        !- Dry-Bulb Temperature Range Modifier Day Schedule Name
    Wetbulb,                 !- Humidity Condition Type
    23.0,                    !- Wetbulb or DewPoint at Maximum Dry-Bulb {C}
    ,                        !- Humidity Condition Day Schedule Name
    ,                        !- Humidity Ratio at Maximum Dry-Bulb {kgWater/kgDryAir}
    ,                        !- Enthalpy at Maximum Dry-Bulb {J/kg}
    ,                        !- Daily Wet-Bulb Temperature Range {deltaC}
    99063.,                  !- Barometric Pressure {Pa}
    5.3,                     !- Wind Speed {m/s}
    230,                     !- Wind Direction {deg}
    No,                      !- Rain Indicator
    No,                      !- Snow Indicator
    No,                      !- Daylight Saving Time Indicator
    ASHRAEClearSky,          !- Solar Model Indicator
    ,                        !- Beam Solar Day Schedule Name
    ,                        !- Diffuse Solar Day Schedule Name
    ,                        !- ASHRAE Clear Sky Optical Depth for Beam Irradiance (taub) {dimensionless}
    ,                        !- ASHRAE Clear Sky Optical Depth for Diffuse Irradiance (taud) {dimensionless}
    1.0;                     !- Sky Clearness

!-   ===========  ALL OBJECTS IN CLASS: GROUNDTEMPERATURES ===========

  Site:GroundTemperature:BuildingSurface,20.03,20.03,20.13,20.30,20.43,20.52,20.62,20.77,20.78,20.55,20.44,20.20;

!-   ===========  ALL OBJECTS IN CLASS: MATERIAL:REGULAR ===========

  Material,
    A1 - 1 IN STUCCO,        !- Name
    Smooth,                  !- Roughness
    2.5389841E-02,           !- Thickness {m}
    0.6918309,               !- Conductivity {W/m-K}
    1858.142,                !- Density {kg/m3}
    836.8000,                !- Specific Heat {J/kg-K}
    0.9000000,               !- Thermal Absorptance
    0.9200000,               !- Solar Absorptance
    0.9200000;               !- Visible Absorptance

  Material,
    C4 - 4 IN COMMON BRICK,  !- Name
    Rough,                   !- Roughness
    0.1014984,               !- Thickness {m}
    0.7264224,               !- Conductivity {W/m-K}
    1922.216,                !- Density {kg/m3}
    836.8000,                !- Specific Heat {J/kg-K}
    0.9000000,               !- Thermal Absorptance
    0.7600000,               !- Solar Absorptance
    0.7600000;               !- Visible Absorptance

  Material,
    E1 - 3 / 4 IN PLASTER OR GYP BOARD,  !- Name
    Smooth,                  !- Roughness
    1.905E-02,               !- Thickness {m}
    0.7264224,               !- Conductivity {W/m-K}
    1601.846,                !- Density {kg/m3}
    836.8000,                !- Specific Heat {J/kg-K}
    0.9000000,               !- Thermal Absorptance
    0.9200000,               !- Solar Absorptance
    0.9200000;               !- Visible Absorptance

  Material,
    C6 - 8 IN CLAY TILE,     !- Name
    Smooth,                  !- Roughness
    0.2033016,               !- Thickness {m}
    0.5707605,               !- Conductivity {W/m-K}
    1121.292,                !- Density {kg/m3}
    836.8000,                !- Specific Heat {J/kg-K}
    0.9000000,               !- Thermal Absorptance
    0.8200000,               !- Solar Absorptance
    0.8200000;               !- Visible Absorptance

  Material,
    C10 - 8 IN HW CONCRETE,  !- Name
    MediumRough,             !- Roughness
    0.2033016,               !- Thickness {m}
    1.729577,                !- Conductivity {W/m-K}
    2242.585,                !- Density {kg/m3}
    836.8000,                !- Specific Heat {J/kg-K}
    0.9000000,               !- Thermal Absorptance
    0.6500000,               !- Solar Absorptance
    0.6500000;               !- Visible Absorptance

  Material,
    C10 - 4 IN HW CONCRETE,  !- Name
    MediumRough,             !- Roughness
    0.1017016,               !- Thickness {m}
    1.729577,                !- Conductivity {W/m-K}
    2242.585,                !- Density {kg/m3}
    836.8000,                !- Specific Heat {J/kg-K}
    0.9000000,               !- Thermal Absorptance
    0.6500000,               !- Solar Absorptance
    0.6500000;               !- Visible Absorptance

  Material,
    E2 - 1 / 2 IN SLAG OR STONE,  !- Name
    Rough,                   !- Roughness
    1.2710161E-02,           !- Thickness {m}
    1.435549,                !- Conductivity {W/m-K}
    881.0155,                !- Density {kg/m3}
    1673.600,                !- Specific Heat {J/kg-K}
    0.9000000,               !- Thermal Absorptance
    0.5500000,               !- Solar Absorptance
    0.5500000;               !- Visible Absorptance

  Material,
    E3 - 3 / 8 IN FELT AND MEMBRANE,  !- Name
    Rough,                   !- Roughness
    9.5402403E-03,           !- Thickness {m}
    0.1902535,               !- Conductivity {W/m-K}
    1121.292,                !- Density {kg/m3}
    1673.600,                !- Specific Heat {J/kg-K}
    0.9000000,               !- Thermal Absorptance
    0.7500000,               !- Solar Absorptance
    0.7500000;               !- Visible Absorptance

  Material,
    B5 - 1 IN DENSE INSULATION,  !- Name
    VeryRough,               !- Roughness
    2.5389841E-02,           !- Thickness {m}
    4.3239430E-02,           !- Conductivity {W/m-K}
    91.30524,                !- Density {kg/m3}
    836.8000,                !- Specific Heat {J/kg-K}
    0.9000000,               !- Thermal Absorptance
    0.5000000,               !- Solar Absorptance
    0.5000000;               !- Visible Absorptance

  Material,
    C12 - 2 IN HW CONCRETE,  !- Name
    MediumRough,             !- Roughness
    5.0901599E-02,           !- Thickness {m}
    1.729577,                !- Conductivity {W/m-K}
    2242.585,                !- Density {kg/m3}
    836.8000,                !- Specific Heat {J/kg-K}
    0.9000000,               !- Thermal Absorptance
    0.6500000,               !- Solar Absorptance
    0.6500000;               !- Visible Absorptance

  Material,
    1.375in-Solid-Core,      !- Name
    Smooth,                  !- Roughness
    3.4925E-02,              !- Thickness {m}
    0.1525000,               !- Conductivity {W/m-K}
    614.5000,                !- Density {kg/m3}
    1630.0000,               !- Specific Heat {J/kg-K}
    0.9000000,               !- Thermal Absorptance
    0.9200000,               !- Solar Absorptance
    0.9200000;               !- Visible Absorptance

  Material:InfraredTransparent,
    IRTMaterial;             !- Name

!  Material:AirGap, AL31, 0.162;
!-   ===========  ALL OBJECTS IN CLASS: MATERIAL:WINDOWGLASS ===========

  WindowMaterial:Glazing,
    WIN-LAY-GLASS-LIGHT,     !- Name
    SpectralAverage,         !- Optical Data Type
    ,                        !- Window Glass Spectral Data Set Name
    0.0025,                  !- Thickness {m}
    0.850,                   !- Solar Transmittance at Normal Incidence
    0.075,                   !- Front Side Solar Reflectance at Normal Incidence
    0.075,                   !- Back Side Solar Reflectance at Normal Incidence
    0.901,                   !- Visible Transmittance at Normal Incidence
    0.081,                   !- Front Side Visible Reflectance at Normal Incidence
    0.081,                   !- Back Side Visible Reflectance at Normal Incidence
    0.0,                     !- Infrared Transmittance at Normal Incidence
    0.84,                    !- Front Side Infrared Hemispherical Emissivity
    0.84,                    !- Back Side Infrared Hemispherical Emissivity
    0.9;                     !- Conductivity {W/m-K}

!-   ===========  ALL OBJECTS IN CLASS: CONSTRUCTION ===========

  Construction,
    DOOR-CON,                !- Name
    1.375in-Solid-Core;      !- Outside Layer

  Construction,
    EXTWALL80,               !- Name
    A1 - 1 IN STUCCO,        !- Outside Layer
    C4 - 4 IN COMMON BRICK,  !- Layer 2
    E1 - 3 / 4 IN PLASTER OR GYP BOARD;  !- Layer 3

  Construction,
    PARTITION06,             !- Name
    E1 - 3 / 4 IN PLASTER OR GYP BOARD,  !- Outside Layer
    C6 - 8 IN CLAY TILE,     !- Layer 2
    E1 - 3 / 4 IN PLASTER OR GYP BOARD;  !- Layer 3

  Construction,
    FLOOR SLAB 8 IN,         !- Name
    C10 - 8 IN HW CONCRETE;  !- Outside Layer

  Construction,
    FLOOR SLAB 4 IN,         !- Name
    C10 - 4 IN HW CONCRETE;  !- Outside Layer

  Construction,
    ROOF34,                  !- Name
    E2 - 1 / 2 IN SLAG OR STONE,  !- Outside Layer
    E3 - 3 / 8 IN FELT AND MEMBRANE,  !- Layer 2
    B5 - 1 IN DENSE INSULATION,  !- Layer 3
    C12 - 2 IN HW CONCRETE;  !- Layer 4

  Construction,
    WIN-CON-LIGHT,           !- Name
    WIN-LAY-GLASS-LIGHT;     !- Outside Layer

  Construction,
    H-Opening,               !- Name
    IRTMaterial;             !- Outside Layer

!-   ===========  ALL OBJECTS IN CLASS: ZONE ===========

  Zone,
    WEST_ZONE,               !- Name
    0,                       !- Direction of Relative North {deg}
    0,                       !- X Origin {m}
    0,                       !- Y Origin {m}
    0,                       !- Z Origin {m}
    1,                       !- Type
    1,                       !- Multiplier
    autocalculate;           !- Ceiling Height {m}

  Zone,
    EAST_ZONE,               !- Name
    0,                       !- Direction of Relative North {deg}
    0,                       !- X Origin {m}
    0,                       !- Y Origin {m}
    0,                       !- Z Origin {m}
    1,                       !- Type
    1,                       !- Multiplier
    autocalculate;           !- Ceiling Height {m}

  Zone,
    NORTH_ZONE,              !- Name
    0,                       !- Direction of Relative North {deg}
    0,                       !- X Origin {m}
    0,                       !- Y Origin {m}
    0,                       !- Z Origin {m}
    1,                       !- Type
    1,                       !- Multiplier
    autocalculate;           !- Ceiling Height {m}

  Zone,
    WEST_ZONE_T,             !- Name
    0,                       !- Direction of Relative North {deg}
    0,                       !- X Origin {m}
    0,                       !- Y Origin {m}
    0,                       !- Z Origin {m}
    1,                       !- Type
    1,                       !- Multiplier
    autocalculate;           !- Ceiling Height {m}

  Zone,
    EAST_ZONE_T,             !- Name
    0,                       !- Direction of Relative North {deg}
    0,                       !- X Origin {m}
    0,                       !- Y Origin {m}
    0,                       !- Z Origin {m}
    1,                       !- Type
    1,                       !- Multiplier
    autocalculate;           !- Ceiling Height {m}

  Zone,
    NORTH_ZONE_T,            !- Name
    0,                       !- Direction of Relative North {deg}
    0,                       !- X Origin {m}
    0,                       !- Y Origin {m}
    0,                       !- Z Origin {m}
    1,                       !- Type
    1,                       !- Multiplier
    autocalculate;           !- Ceiling Height {m}

!-   ===========  ALL OBJECTS IN CLASS: SURFACEGEOMETRY ===========

  GlobalGeometryRules,
    UpperLeftCorner,         !- Starting Vertex Position
    CounterClockWise,        !- Vertex Entry Direction
    World;                   !- Coordinate System

!-   ===========  ALL OBJECTS IN CLASS: SURFACE:HEATTRANSFER ===========

  BuildingSurface:Detailed,
    Surface_1,               !- Name
    WALL,                    !- Surface Type
    EXTWALL80,               !- Construction Name
    WEST_ZONE,               !- Zone Name
    ,                        !- Space Name
    Outdoors,                !- Outside Boundary Condition
    ,                        !- Outside Boundary Condition Object
    SunExposed,              !- Sun Exposure
    WindExposed,             !- Wind Exposure
    0.5000000,               !- View Factor to Ground
    4,                       !- Number of Vertices
    0,0,3.048000,  !- X,Y,Z ==> Vertex 1 {m}
    0,0,0,  !- X,Y,Z ==> Vertex 2 {m}
    6.096000,0,0,  !- X,Y,Z ==> Vertex 3 {m}
    6.096000,0,3.048000;  !- X,Y,Z ==> Vertex 4 {m}

  BuildingSurface:Detailed,
    Surface_1_T,             !- Name
    WALL,                    !- Surface Type
    EXTWALL80,               !- Construction Name
    WEST_ZONE_T,             !- Zone Name
    ,                        !- Space Name
    Outdoors,                !- Outside Boundary Condition
    ,                        !- Outside Boundary Condition Object
    SunExposed,              !- Sun Exposure
    WindExposed,             !- Wind Exposure
    0.5000000,               !- View Factor to Ground
    4,                       !- Number of Vertices
    0,0,6.096,  !- X,Y,Z ==> Vertex 1 {m}
    0,0,3.048,  !- X,Y,Z ==> Vertex 2 {m}
    6.096000,0,3.048,  !- X,Y,Z ==> Vertex 3 {m}
    6.096000,0,6.096;  !- X,Y,Z ==> Vertex 4 {m}

  BuildingSurface:Detailed,
    Surface_2,               !- Name
    WALL,                    !- Surface Type
    EXTWALL80,               !- Construction Name
    WEST_ZONE,               !- Zone Name
    ,                        !- Space Name
    Outdoors,                !- Outside Boundary Condition
    ,                        !- Outside Boundary Condition Object
    SunExposed,              !- Sun Exposure
    WindExposed,             !- Wind Exposure
    0.5000000,               !- View Factor to Ground
    4,                       !- Number of Vertices
    0,6.096000,3.048000,  !- X,Y,Z ==> Vertex 1 {m}
    0,6.096000,0,  !- X,Y,Z ==> Vertex 2 {m}
    0,0,0,  !- X,Y,Z ==> Vertex 3 {m}
    0,0,3.048000;  !- X,Y,Z ==> Vertex 4 {m}

  BuildingSurface:Detailed,
    Surface_2_T,             !- Name
    WALL,                    !- Surface Type
    EXTWALL80,               !- Construction Name
    WEST_ZONE_T,             !- Zone Name
    ,                        !- Space Name
    Outdoors,                !- Outside Boundary Condition
    ,                        !- Outside Boundary Condition Object
    SunExposed,              !- Sun Exposure
    WindExposed,             !- Wind Exposure
    0.5000000,               !- View Factor to Ground
    4,                       !- Number of Vertices
    0,6.096000,6.096,  !- X,Y,Z ==> Vertex 1 {m}
    0,6.096000,3.048,  !- X,Y,Z ==> Vertex 2 {m}
    0,0,3.048,  !- X,Y,Z ==> Vertex 3 {m}
    0,0,6.096;  !- X,Y,Z ==> Vertex 4 {m}

  BuildingSurface:Detailed,
    Surface_3,               !- Name
    WALL,                    !- Surface Type
    PARTITION06,             !- Construction Name
    WEST_ZONE,               !- Zone Name
    ,                        !- Space Name
    Surface,                 !- Outside Boundary Condition
    Surface_17,              !- Outside Boundary Condition Object
    NoSun,                   !- Sun Exposure
    NoWind,                  !- Wind Exposure
    0.5000000,               !- View Factor to Ground
    4,                       !- Number of Vertices
    6.096000,6.096000,3.048000,  !- X,Y,Z ==> Vertex 1 {m}
    6.096000,6.096000,0,  !- X,Y,Z ==> Vertex 2 {m}
    0,6.096000,0,  !- X,Y,Z ==> Vertex 3 {m}
    0,6.096000,3.048000;  !- X,Y,Z ==> Vertex 4 {m}

  BuildingSurface:Detailed,
    Surface_3_T,             !- Name
    WALL,                    !- Surface Type
    PARTITION06,             !- Construction Name
    WEST_ZONE_T,             !- Zone Name
    ,                        !- Space Name
    Surface,                 !- Outside Boundary Condition
    Surface_17_T,            !- Outside Boundary Condition Object
    NoSun,                   !- Sun Exposure
    NoWind,                  !- Wind Exposure
    0.5000000,               !- View Factor to Ground
    4,                       !- Number of Vertices
    6.096000,6.096000,6.096,  !- X,Y,Z ==> Vertex 1 {m}
    6.096000,6.096000,3.048,  !- X,Y,Z ==> Vertex 2 {m}
    0,6.096000,3.048,  !- X,Y,Z ==> Vertex 3 {m}
    0,6.096000,6.096;  !- X,Y,Z ==> Vertex 4 {m}

  BuildingSurface:Detailed,
    Surface_4,               !- Name
    WALL,                    !- Surface Type
    PARTITION06,             !- Construction Name
    WEST_ZONE,               !- Zone Name
    ,                        !- Space Name
    Surface,                 !- Outside Boundary Condition
    Surface_10,              !- Outside Boundary Condition Object
    NoSun,                   !- Sun Exposure
    NoWind,                  !- Wind Exposure
    0.5000000,               !- View Factor to Ground
    4,                       !- Number of Vertices
    6.096000,0,3.048000,  !- X,Y,Z ==> Vertex 1 {m}
    6.096000,0,0,  !- X,Y,Z ==> Vertex 2 {m}
    6.096000,6.096000,0,  !- X,Y,Z ==> Vertex 3 {m}
    6.096000,6.096000,3.048000;  !- X,Y,Z ==> Vertex 4 {m}

  BuildingSurface:Detailed,
    Surface_4_T,             !- Name
    WALL,                    !- Surface Type
    PARTITION06,             !- Construction Name
    WEST_ZONE_T,             !- Zone Name
    ,                        !- Space Name