!-Generator IDFEditor 1.48
!-Option OriginalOrderTop UseSpecialFormat
! ORNL_Attic_Experiment.idf
! Basic file description: A 21 m^2 (226 ft^2) experimental house with slab-on-grade (no ground contact).
!
! Highlights:             This file provides input used for validating EnergyPlus against the
!                         ORNL attic experiment.
!
!
! Simulation Location/Run: CHICAGO_IL_USA TMY2-94846, 2 design days, 2 run periods,
!                          Run Control executes the design days only.
!
! Location:                Chicago, IL
!
! Design Days:             CHICAGO_IL_USA Annual Heating 99% Design Conditions DB, MaxDB= -17.3°C
!                          CHICAGO_IL_USA Annual Cooling 1% Design Conditions, MaxDB=  31.5°C MCWB=  23.0°C
!
! Run Period (Weather File): 1/1 - 12/31 CHICAGO_IL_USA TMY2-94846
!
! Run Control:             No zone or system sizing, design day simulation.
!
! Building:                There are 2 zones (occupied space and attic). The living zone is conditioned.
!                          The attic zone is unconditioned.
!
!                          The supply duct is located in the attic zone. All remaining ducts are in the occupied zone.
!
! Control logic:           Always on to hold a zone temperature of 23 deg C
!
! Floor Area:        21 m^2 (226 ft^2)
! Number of Stories: 1
!
! Zone Description Details (No attic zone):
!
!               ____________________________ (4.98, 4.32, 0)
!              |                            |
!              |                            |
!              |                            |
!              |                            |
!              |                            |
!              |                            |
!              |                            |
!              |                            |
!              |____________________________|
!      (0,0,0)
!
!
! Internal gains description:     None
!
! Interzone Surfaces:             None
! Internal Mass:                  Attic Trusses
! People:                         None
! Lights:                         None
! Equipment:                      None
! Windows:                        None
! Detached Shading:               None
! Daylight:                       None
! Natural Ventilation:            None
! Compact Schedules:              Yes
! Solair Distribution:            None
!
! HVAC:                           AirloopHVAC provides for constant 23 deg C occupied zone temperatures.
!
! Zonal Equipment:                Living Zone - Direct Air
! Central Air Handling Equipment: Yes
! System Equipment Autosize:      No
! Purchased Cooling:              No
! Purchased Heating:              No
! Purchased Chilled Water:        No
! Purchased Hot Water:            No
! Coils:                          Coil:Heating:Fuel
!                                 Coil:Cooling:DX:SingleSpeed
! Pumps:                          None
! Boilers:                        None
! Chillers:                       None
! Towers:                         None
!
! Results:
! Standard Reports:               None
! Timestep or Hourly Variables:   Timestep
! Time bins Report:               None
! HTML Report:                    None
! Environmental Emissions:        None
! Utility Tariffs:                None
!

  Version,24.1;

  Timestep,6;

  SurfaceConvectionAlgorithm:Inside,TARP;

  SurfaceConvectionAlgorithm:Outside,DOE-2;

  HeatBalanceAlgorithm,ConductionTransferFunction;

  Output:DebuggingData,
    No,                      !- Report Debugging Data
    No;                      !- Report During Warmup

  SimulationControl,
    No,                      !- Do Zone Sizing Calculation
    No,                      !- Do System Sizing Calculation
    No,                      !- Do Plant Sizing Calculation
    Yes,                     !- Run Simulation for Sizing Periods
    No,                      !- Run Simulation for Weather File Run Periods
    No,                      !- Do HVAC Sizing Simulation for Sizing Periods
    1;                       !- Maximum Number of HVAC Sizing Simulation Passes

  RunPeriod,
    Run Period 1,            !- Name
    1,                       !- Begin Month
    1,                       !- Begin Day of Month
    ,                        !- Begin Year
    12,                      !- End Month
    31,                      !- End Day of Month
    ,                        !- End Year
    Tuesday,                 !- Day of Week for Start Day
    Yes,                     !- Use Weather File Holidays and Special Days
    Yes,                     !- Use Weather File Daylight Saving Period
    No,                      !- Apply Weekend Holiday Rule
    Yes,                     !- Use Weather File Rain Indicators
    Yes;                     !- Use Weather File Snow Indicators

  Site:Location,
    CHICAGO_IL_USA TMY2-94846,  !- Name
    41.78,                   !- Latitude {deg}
    -87.75,                  !- Longitude {deg}
    -6.00,                   !- Time Zone {hr}
    190.00;                  !- Elevation {m}

! CHICAGO_IL_USA Annual Heating 99% Design Conditions DB, MaxDB= -17.3°C

  SizingPeriod:DesignDay,
    CHICAGO_IL_USA Annual Heating 99% Design Conditions DB,  !- Name
    1,                       !- Month
    21,                      !- Day of Month
    WinterDesignDay,         !- Day Type
    -17.3,                   !- Maximum Dry-Bulb Temperature {C}
    0.0,                     !- Daily Dry-Bulb Temperature Range {deltaC}
    ,                        !- Dry-Bulb Temperature Range Modifier Type
    ,                        !- Dry-Bulb Temperature Range Modifier Day Schedule Name
    Wetbulb,                 !- Humidity Condition Type
    -17.3,                   !- Wetbulb or DewPoint at Maximum Dry-Bulb {C}
    ,                        !- Humidity Condition Day Schedule Name
    ,                        !- Humidity Ratio at Maximum Dry-Bulb {kgWater/kgDryAir}
    ,                        !- Enthalpy at Maximum Dry-Bulb {J/kg}
    ,                        !- Daily Wet-Bulb Temperature Range {deltaC}
    99063.,                  !- Barometric Pressure {Pa}
    4.9,                     !- Wind Speed {m/s}
    270,                     !- Wind Direction {deg}
    No,                      !- Rain Indicator
    No,                      !- Snow Indicator
    No,                      !- Daylight Saving Time Indicator
    ASHRAEClearSky,          !- Solar Model Indicator
    ,                        !- Beam Solar Day Schedule Name
    ,                        !- Diffuse Solar Day Schedule Name
    ,                        !- ASHRAE Clear Sky Optical Depth for Beam Irradiance (taub) {dimensionless}
    ,                        !- ASHRAE Clear Sky Optical Depth for Diffuse Irradiance (taud) {dimensionless}
    0.0;                     !- Sky Clearness

! CHICAGO_IL_USA Annual Cooling 1% Design Conditions, MaxDB=  31.5°C MCWB=  23.0°C

  SizingPeriod:DesignDay,
    CHICAGO_IL_USA Annual Cooling 1% Design Conditions DB/MCWB,  !- Name
    7,                       !- Month
    21,                      !- Day of Month
    SummerDesignDay,         !- Day Type
    31.5,                    !- Maximum Dry-Bulb Temperature {C}
    10.7,                    !- Daily Dry-Bulb Temperature Range {deltaC}
    ,                        !- Dry-Bulb Temperature Range Modifier Type
    ,                        !- Dry-Bulb Temperature Range Modifier Day Schedule Name
    Wetbulb,                 !- Humidity Condition Type
    23.0,                    !- Wetbulb or DewPoint at Maximum Dry-Bulb {C}
    ,                        !- Humidity Condition Day Schedule Name
    ,                        !- Humidity Ratio at Maximum Dry-Bulb {kgWater/kgDryAir}
    ,                        !- Enthalpy at Maximum Dry-Bulb {J/kg}
    ,                        !- Daily Wet-Bulb Temperature Range {deltaC}
    99063.,                  !- Barometric Pressure {Pa}
    5.3,                     !- Wind Speed {m/s}
    230,                     !- Wind Direction {deg}
    No,                      !- Rain Indicator
    No,                      !- Snow Indicator
    No,                      !- Daylight Saving Time Indicator
    ASHRAEClearSky,          !- Solar Model Indicator
    ,                        !- Beam Solar Day Schedule Name
    ,                        !- Diffuse Solar Day Schedule Name
    ,                        !- ASHRAE Clear Sky Optical Depth for Beam Irradiance (taub) {dimensionless}
    ,                        !- ASHRAE Clear Sky Optical Depth for Diffuse Irradiance (taud) {dimensionless}
    1.0;                     !- Sky Clearness

  Site:GroundTemperature:BuildingSurface,20.03,20.03,20.13,20.30,20.43,20.52,20.62,20.77,20.78,20.55,20.44,20.20;

  Building,
    House with AirflowNetwork simulation,  !- Name
    0,                       !- North Axis {deg}
    Suburbs,                 !- Terrain
    0.001,                   !- Loads Convergence Tolerance Value {W}
    0.0050000,               !- Temperature Convergence Tolerance Value {deltaC}
    FullInteriorAndExterior, !- Solar Distribution
    25,                      !- Maximum Number of Warmup Days
    6;                       !- Minimum Number of Warmup Days

  Zone,
    Attic Thermal Zone,      !- Name
    -0,                      !- Direction of Relative North {deg}
    0,                       !- X Origin {m}
    0,                       !- Y Origin {m}
    1.6;                     !- Z Origin {m}

  Zone,
    Occupied Thermal Zone,   !- Name
    -0,                      !- Direction of Relative North {deg}
    0,                       !- X Origin {m}
    0,                       !- Y Origin {m}
    0;                       !- Z Origin {m}

  BuildingSurface:Detailed,
    Gable North,             !- Name
    Wall,                    !- Surface Type
    Gable FATM,              !- Construction Name
    Attic Thermal Zone,      !- Zone Name
    ,                        !- Space Name
    Outdoors,                !- Outside Boundary Condition
    ,                        !- Outside Boundary Condition Object
    NoSun,                   !- Sun Exposure
    NoWind,                  !- Wind Exposure
    ,                        !- View Factor to Ground
    ,                        !- Number of Vertices
    2.49,4.32,1.0541,  !- X,Y,Z ==> Vertex 1 {m}
    4.48,4.32,0.211666666666666,  !- X,Y,Z ==> Vertex 2 {m}
    4.48,4.32,0,  !- X,Y,Z ==> Vertex 3 {m}
    0,4.32,0;  !- X,Y,Z ==> Vertex 4 {m}

  BuildingSurface:Detailed,
    Gable North 2,           !- Name
    Wall,                    !- Surface Type
    Gable FATM,              !- Construction Name
    Attic Thermal Zone,      !- Zone Name
    ,                        !- Space Name
    Outdoors,                !- Outside Boundary Condition
    ,                        !- Outside Boundary Condition Object
    SunExposed,              !- Sun Exposure
    WindExposed,             !- Wind Exposure
    ,                        !- View Factor to Ground
    ,                        !- Number of Vertices
    4.48,4.32,0.211666666666666,  !- X,Y,Z ==> Vertex 1 {m}
    4.98,4.32,0,  !- X,Y,Z ==> Vertex 2 {m}
    4.48,4.32,0;  !- X,Y,Z ==> Vertex 3 {m}

  BuildingSurface:Detailed,
    Gable South,             !- Name
    Wall,                    !- Surface Type
    Gable FATM,              !- Construction Name
    Attic Thermal Zone,      !- Zone Name
    ,                        !- Space Name
    Outdoors,                !- Outside Boundary Condition
    ,                        !- Outside Boundary Condition Object
    SunExposed,              !- Sun Exposure
    WindExposed,             !- Wind Exposure
    ,                        !- View Factor to Ground
    ,                        !- Number of Vertices
    2.49,0,1.0541,  !- X,Y,Z ==> Vertex 1 {m}
    0,0,0,  !- X,Y,Z ==> Vertex 2 {m}
    4.48,0,0,  !- X,Y,Z ==> Vertex 3 {m}
    4.48,0,0.211666666666666;  !- X,Y,Z ==> Vertex 4 {m}

  BuildingSurface:Detailed,
    Gable South 2,           !- Name
    Wall,                    !- Surface Type
    Gable FATM,              !- Construction Name
    Attic Thermal Zone,      !- Zone Name
    ,                        !- Space Name
    Outdoors,                !- Outside Boundary Condition
    ,                        !- Outside Boundary Condition Object
    SunExposed,              !- Sun Exposure
    WindExposed,             !- Wind Exposure
    ,                        !- View Factor to Ground
    ,                        !- Number of Vertices
    4.48,0,0.211666666666666,  !- X,Y,Z ==> Vertex 1 {m}
    4.48,0,0,  !- X,Y,Z ==> Vertex 2 {m}
    4.98,0,0;  !- X,Y,Z ==> Vertex 3 {m}

  BuildingSurface:Detailed,
    Attic Ceiling,           !- Name
    Floor,                   !- Surface Type
    Ceiling FATM,            !- Construction Name
    Attic Thermal Zone,      !- Zone Name
    ,                        !- Space Name
    Surface,                 !- Outside Boundary Condition
    Zone Ceiling,            !- Outside Boundary Condition Object
    NoSun,                   !- Sun Exposure
    NoWind,                  !- Wind Exposure
    ,                        !- View Factor to Ground
    ,                        !- Number of Vertices
    4.98,4.32,0,  !- X,Y,Z ==> Vertex 1 {m}
    4.98,0,0,  !- X,Y,Z ==> Vertex 2 {m}
    0,0,0,  !- X,Y,Z ==> Vertex 3 {m}
    0,4.32,0;  !- X,Y,Z ==> Vertex 4 {m}

  BuildingSurface:Detailed,
    Roof East,               !- Name
    Roof,                    !- Surface Type
    Roof FATM,               !- Construction Name
    Attic Thermal Zone,      !- Zone Name
    ,                        !- Space Name
    Outdoors,                !- Outside Boundary Condition
    ,                        !- Outside Boundary Condition Object
    SunExposed,              !- Sun Exposure
    WindExposed,             !- Wind Exposure
    ,                        !- View Factor to Ground
    ,                        !- Number of Vertices
    2.49,0,1.0541,  !- X,Y,Z ==> Vertex 1 {m}
    4.98,0,0,  !- X,Y,Z ==> Vertex 2 {m}
    4.98,4.32,0,  !- X,Y,Z ==> Vertex 3 {m}
    2.49,4.32,1.0541;  !- X,Y,Z ==> Vertex 4 {m}

  BuildingSurface:Detailed,
    Roof West,               !- Name
    Roof,                    !- Surface Type
    Roof FATM,               !- Construction Name
    Attic Thermal Zone,      !- Zone Name
    ,                        !- Space Name
    Outdoors,                !- Outside Boundary Condition
    ,                        !- Outside Boundary Condition Object
    SunExposed,              !- Sun Exposure
    WindExposed,             !- Wind Exposure
    ,                        !- View Factor to Ground
    ,                        !- Number of Vertices
    2.49,4.32,1.0541,  !- X,Y,Z ==> Vertex 1 {m}
    0,4.32,0,  !- X,Y,Z ==> Vertex 2 {m}
    0,0,0,  !- X,Y,Z ==> Vertex 3 {m}
    2.49,0,1.0541;  !- X,Y,Z ==> Vertex 4 {m}

  BuildingSurface:Detailed,
    Floor,                   !- Name
    Floor,                   !- Surface Type
    FLOOR:LIVING,            !- Construction Name
    Occupied Thermal Zone,   !- Zone Name
    ,                        !- Space Name
    Ground,                  !- Outside Boundary Condition
    ,                        !- Outside Boundary Condition Object
    NoSun,                   !- Sun Exposure
    NoWind,                  !- Wind Exposure
    ,                        !- View Factor to Ground
    ,                        !- Number of Vertices
    4.98,4.32,0,  !- X,Y,Z ==> Vertex 1 {m}
    4.98,0,0,  !- X,Y,Z ==> Vertex 2 {m}
    0,0,0,  !- X,Y,Z ==> Vertex 3 {m}
    0,4.32,0;  !- X,Y,Z ==> Vertex 4 {m}

  BuildingSurface:Detailed,
    Wall East,               !- Name
    Wall,                    !- Surface Type
    EXTWALL:LIVING,          !- Construction Name
    Occupied Thermal Zone,   !- Zone Name
    ,                        !- Space Name
    Outdoors,                !- Outside Boundary Condition
    ,                        !- Outside Boundary Condition Object
    SunExposed,              !- Sun Exposure
    WindExposed,             !- Wind Exposure
    ,                        !- View Factor to Ground
    ,                        !- Number of Vertices
    4.98,0,1.6,  !- X,Y,Z ==> Vertex 1 {m}
    4.98,0,0,  !- X,Y,Z ==> Vertex 2 {m}
    4.98,4.32,0,  !- X,Y,Z ==> Vertex 3 {m}
    4.98,4.32,1.6;  !- X,Y,Z ==> Vertex 4 {m}

  BuildingSurface:Detailed,
    Wall North,              !- Name
    Wall,                    !- Surface Type
    EXTWALL:LIVING,          !- Construction Name
    Occupied Thermal Zone,   !- Zone Name
    ,                        !- Space Name
    Outdoors,                !- Outside Boundary Condition
    ,                        !- Outside Boundary Condition Object
    SunExposed,              !- Sun Exposure
    WindExposed,             !- Wind Exposure
    ,                        !- View Factor to Ground
    ,                        !- Number of Vertices
    4.98,4.32,1.6,  !- X,Y,Z ==> Vertex 1 {m}
    4.98,4.32,0,  !- X,Y,Z ==> Vertex 2 {m}
    0,4.32,0,  !- X,Y,Z ==> Vertex 3 {m}
    0,4.32,1.6;  !- X,Y,Z ==> Vertex 4 {m}

  BuildingSurface:Detailed,
    Wall South,              !- Name
    Wall,                    !- Surface Type
    EXTWALL:LIVING,          !- Construction Name
    Occupied Thermal Zone,   !- Zone Name
    ,                        !- Space Name
    Outdoors,                !- Outside Boundary Condition
    ,                        !- Outside Boundary Condition Object
    SunExposed,              !- Sun Exposure
    WindExposed,             !- Wind Exposure
    ,                        !- View Factor to Ground
    ,                        !- Number of Vertices
    0,0,1.6,  !- X,Y,Z ==> Vertex 1 {m}
    0,0,0,  !- X,Y,Z ==> Vertex 2 {m}
    4.98,0,0,  !- X,Y,Z ==> Vertex 3 {m}
    4.98,0,1.6;  !- X,Y,Z ==> Vertex 4 {m}

  BuildingSurface:Detailed,
    Wall West,               !- Name
    Wall,                    !- Surface Type
    EXTWALL:LIVING,          !- Construction Name
    Occupied Thermal Zone,   !- Zone Name
    ,                        !- Space Name
    Outdoors,                !- Outside Boundary Condition
    ,                        !- Outside Boundary Condition Object
    SunExposed,              !- Sun Exposure
    WindExposed,             !- Wind Exposure
    ,                        !- View Factor to Ground
    ,                        !- Number of Vertices
    0,4.32,1.6,  !- X,Y,Z ==> Vertex 1 {m}
    0,4.32,0,  !- X,Y,Z ==> Vertex 2 {m}
    0,0,0,  !- X,Y,Z ==> Vertex 3 {m}
    0,0,1.6;  !- X,Y,Z ==> Vertex 4 {m}

  BuildingSurface:Detailed,
    Zone Ceiling,            !- Name
    Ceiling,                 !- Surface Type
    Ceiling FATM,            !- Construction Name
    Occupied Thermal Zone,   !- Zone Name
    ,                        !- Space Name
    Surface,                 !- Outside Boundary Condition
    Attic Ceiling,           !- Outside Boundary Condition Object
    NoSun,                   !- Sun Exposure
    NoWind,                  !- Wind Exposure
    ,                        !- View Factor to Ground
    ,                        !- Number of Vertices
    4.98,0,1.6,  !- X,Y,Z ==> Vertex 1 {m}
    4.98,4.32,1.6,  !- X,Y,Z ==> Vertex 2 {m}
    0,4.32,1.6,  !- X,Y,Z ==> Vertex 3 {m}
    0,0,1.6;  !- X,Y,Z ==> Vertex 4 {m}

  Material,
    Wood Trusses,            !- Name
    MediumRough,             !- Roughness
    0.045,                   !- Thickness {m}
    0.13,                    !- Conductivity {W/m-K}
    500,                     !- Density {kg/m3}
    1630,                    !- Specific Heat {J/kg-K}
    0.9,                     !- Thermal Absorptance
    0.7,                     !- Solar Absorptance
    0.7;                     !- Visible Absorptance

  Material,
    Insulation2,             !- Name
    Rough,                   !- Roughness
    0.25,                    !- Thickness {m}
    0.034,                   !- Conductivity {W/m-K}
    30,                      !- Density {kg/m3}
    840,                     !- Specific Heat {J/kg-K}
    0.9,                     !- Thermal Absorptance
    0.7,                     !- Solar Absorptance
    0.7;                     !- Visible Absorptance

  Material,
    Plywood FATM,            !- Name
    Rough,                   !- Roughness
    0.012701016,             !- Thickness {m}
    0.091,                   !- Conductivity {W/m-K}
    460,                     !- Density {kg/m3}
    1880,                    !- Specific Heat {J/kg-K}
    0.9,                     !- Thermal Absorptance
    0.7,                     !- Solar Absorptance
    0.7;                     !- Visible Absorptance

  Material,
    Insulation FATM,         !- Name
    Rough,                   !- Roughness
    0.19812,                 !- Thickness {m}
    0.0529757092,            !- Conductivity {W/m-K}
    99.99,                   !- Density {kg/m3}
    970.3172847,             !- Specific Heat {J/kg-K}
    0.9,                     !- Thermal Absorptance
    0.7,                     !- Solar Absorptance
    0.7;                     !- Visible Absorptance

  Material,
    Shingles FATM,           !- Name
    Rough,                   !- Roughness
    0.009525,                !- Thickness {m}
    0.1227,                  !- Conductivity {W/m-K}
    920,                     !- Density {kg/m3}
    1260,                    !- Specific Heat {J/kg-K}
    0.9,                     !- Thermal Absorptance
    0.7,                     !- Solar Absorptance
    0.7;                     !- Visible Absorptance

  Material,
    Insulation,              !- Name
    Rough,                   !- Roughness
    0.3,                     !- Thickness {m}
    0.034,                   !- Conductivity {W/m-K}
    30,                      !- Density {kg/m3}
    840,                     !- Specific Heat {J/kg-K}
    0.9,                     !- Thermal Absorptance
    0.7,                     !- Solar Absorptance
    0.7;                     !- Visible Absorptance

  Material,
    Glass-fiber batts,       !- Name
    MediumRough,             !- Roughness
    0.18542,                 !- Thickness {m}
    0.0351,                  !- Conductivity {W/m-K}
    12,                      !- Density {kg/m3}
    840,                     !- Specific Heat {J/kg-K}
    0.9,                     !- Thermal Absorptance
    0.7,                     !- Solar Absorptance
    0.7;                     !- Visible Absorptance

  Material,
    Gypsum board,            !- Name
    MediumRough,             !- Roughness
    0.013,                   !- Thickness {m}
    0.16,                    !- Conductivity {W/m-K}
    640,                     !- Density {kg/m3}
    1150,                    !- Specific Heat {J/kg-K}
    0.9,                     !- Thermal Absorptance
    0.7,                     !- Solar Absorptance
    0.7;                     !- Visible Absorptance

  Material,
    Roofing asphalt shingle, !- Name
    Rough,                   !- Roughness
    0.009525,                !- Thickness {m}
    0.122,                   !- Conductivity {W/m-K}
    920,                     !- Density {kg/m3}
    1260,                    !- Specific Heat {J/kg-K}
    0.9,                     !- Thermal Absorptance
    0.7,                     !- Solar Absorptance
    0.7;                     !- Visible Absorptance

  Material,
    OSB,                     !- Name
    MediumRough,             !- Roughness
    0.019,                   !- Thickness {m}
    0.1058,                  !- Conductivity {W/m-K}
    650,                     !- Density {kg/m3}
    1880,                    !- Specific Heat {J/kg-K}
    0.9,                     !- Thermal Absorptance
    0.7,                     !- Solar Absorptance
    0.7;                     !- Visible Absorptance

  Material,
    A1 - 1 IN STUCCO,        !- Name
    Smooth,                  !- Roughness
    2.5389841E-02,           !- Thickness {m}
    0.6918309,               !- Conductivity {W/m-K}
    1858.142,                !- Density {kg/m3}
    836.8000,                !- Specific Heat {J/kg-K}
    0.9000000,               !- Thermal Absorptance
    0.9200000,               !- Solar Absorptance
    0.9200000;               !- Visible Absorptance

! CC Blk 8 in HW Hol.

  Material,
    CB11,                    !- Name
    MediumRough,             !- Roughness
    0.2032000,               !- Thickness {m}
    1.048000,                !- Conductivity {W/m-K}
    1105.000,                !- Density {kg/m3}
    837.0000,                !- Specific Heat {J/kg-K}
    0.9000000,               !- Thermal Absorptance
    0.2000000,               !- Solar Absorptance
    0.2000000;               !- Visible Absorptance

! Gyps or Plast Brd 1/2 in

  Material,
    GP01,                    !- Name
    MediumSmooth,            !- Roughness
    1.2700000E-02,           !- Thickness {m}
    0.1600000,               !- Conductivity {W/m-K}
    801.0000,                !- Density {kg/m3}
    837.0000,                !- Specific Heat {J/kg-K}
    0.9000000,               !- Thermal Absorptance
    0.7500000,               !- Solar Absorptance
    0.7500000;               !- Visible Absorptance

! Min.Wool/Fib Batt R-11

  Material,
    IN02,                    !- Name
    Rough,                   !- Roughness
    9.0099998E-02,           !- Thickness {m}
    4.3000001E-02,           !- Conductivity {W/m-K}
    10.00000,                !- Density {kg/m3}
    837.0000,                !- Specific Heat {J/kg-K}
    0.9000000,               !- Thermal Absorptance
    0.7500000,               !- Solar Absorptance
    0.7500000;               !- Visible Absorptance

! Min.Wool/Fib Batt R-30

  Material,
    IN05,                    !- Name
    Rough,                   !- Roughness
    0.2458000,               !- Thickness {m}
    4.3000001E-02,           !- Conductivity {W/m-K}
    10.00000,                !- Density {kg/m3}
    837.0000,                !- Specific Heat {J/kg-K}
    0.9000000,               !- Thermal Absorptance
    0.7500000,               !- Solar Absorptance
    0.7500000;               !- Visible Absorptance

! Plywood1/2 in

  Material,
    PW03,                    !- Name
    MediumSmooth,            !- Roughness
    1.2700000E-02,           !- Thickness {m}
    0.1150000,               !- Conductivity {W/m-K}
    545.0000,                !- Density {kg/m3}
    1213.000,                !- Specific Heat {J/kg-K}
    0.9000000,               !- Thermal Absorptance
    0.7800000,               !- Solar Absorptance
    0.7800000;               !- Visible Absorptance

! CC HW Dr.  140 lbs 4 in

  Material,
    CC03,                    !- Name
    MediumRough,             !- Roughness
    0.1016000,               !- Thickness {m}
    1.310000,                !- Conductivity {W/m-K}
    2243.000,                !- Density {kg/m3}
    837.0000,                !- Specific Heat {J/kg-K}
    0.9000000,               !- Thermal Absorptance
    0.6500000,               !- Solar Absorptance
    0.6500000;               !- Visible Absorptance

! STEEL SIDING LW

  Material,
    HF-A3,                   !- Name
    Smooth,                  !- Roughness
    1.5000000E-03,           !- Thickness {m}
    44.96960,                !- Conductivity {W/m-K}
    7689.000,                !- Density {kg/m3}
    418.0000,                !- Specific Heat {J/kg-K}
    0.9000000,               !- Thermal Absorptance
    0.2000000,               !- Solar Absorptance
    0.2000000;               !- Visible Absorptance

! Asphalt Shingle and Siding

  Material:NoMass,
    AR02,                    !- Name
    VeryRough,               !- Roughness
    7.8000002E-02,           !- Thermal Resistance {m2-K/W}
    0.9000000,               !- Thermal Absorptance
    0.7000000,               !- Solar Absorptance
    0.7000000;               !- Visible Absorptance

! Carpet With Rubber Pad

  Material:NoMass,
    CP02,                    !- Name
    Rough,                   !- Roughness
    0.2170000,               !- Thermal Resistance {m2-K/W}
    0.9000000,               !- Thermal Absorptance
    0.7500000,               !- Solar Absorptance
    0.7500000;               !- Visible Absorptance

! ID 2

  WindowMaterial:Glazing,
    CLEAR 3MM,               !- Name
    SpectralAverage,         !- Optical Data Type
    ,                        !- Window Glass Spectral Data Set Name
    0.003,                   !- Thickness {m}
    0.837,                   !- Solar Transmittance at Normal Incidence
    0.075,                   !- Front Side Solar Reflectance at Normal Incidence
    0.075,                   !- Back Side Solar Reflectance at Normal Incidence
    0.898,                   !- Visible Transmittance at Normal Incidence
    0.081,                   !- Front Side Visible Reflectance at Normal Incidence
    0.081,                   !- Back Side Visible Reflectance at Normal Incidence
    0.0,                     !- Infrared Transmittance at Normal Incidence
    0.84,                    !- Front Side Infrared Hemispherical Emissivity
    0.84,                    !- Back Side Infrared Hemispherical Emissivity
    0.9;                     !- Conductivity {W/m-K}

  WindowMaterial:Gas,
    AIR 6MM,                 !- Name
    AIR,                     !- Gas Type
    0.006;                   !- Thickness {m}

  Construction,
    Trusses,                 !- Name
    Wood Trusses;            !- Outside Layer

  Construction,
    Ceiling FATM,            !- Name
    Insulation FATM;         !- Outside Layer

  Construction,
    Roof FATM,               !- Name
    Shingles FATM,           !- Outside Layer
    Plywood FATM;            !- Layer 2

  Construction,
    Gable FATM,              !- Name
    Plywood FATM;            !- Outside Layer

  Construction,
    EXTWALL:LIVING,          !- Name
    A1 - 1 IN STUCCO,        !- Outside Layer
    CB11,                    !- Layer 2
    Insulation2,             !- Layer 3
    GP01;                    !- Layer 4

  Construction,