!-Generator IDFEditor 1.51
!-Option SortedOrder UseSpecialFormat
!-NOTE: All comments with '!-' are ignored by the IDFEditor and are generated automatically.
!-      Use '!' comments if they need to be retained when using the IDFEditor.
!-   ===========  ALL OBJECTS IN CLASS: VERSION ===========

  Version,24.1;

!-   ===========  ALL OBJECTS IN CLASS: SIMULATIONCONTROL ===========

  SimulationControl,
    Yes,                     !- Do Zone Sizing Calculation
    Yes,                     !- Do System Sizing Calculation
    Yes,                     !- Do Plant Sizing Calculation
    No,                      !- Run Simulation for Sizing Periods
    YES,                     !- Run Simulation for Weather File Run Periods
    No,                      !- Do HVAC Sizing Simulation for Sizing Periods
    1;                       !- Maximum Number of HVAC Sizing Simulation Passes

!-   ===========  ALL OBJECTS IN CLASS: BUILDING ===========

  Building,
    Warehouse,               !- Name
    90,                      !- North Axis {deg}
    Urban,                   !- Terrain
    0.04,                    !- Loads Convergence Tolerance Value {W}
    0.4,                     !- Temperature Convergence Tolerance Value {deltaC}
    FullExterior,            !- Solar Distribution
    15,                      !- Maximum Number of Warmup Days
    6;                       !- Minimum Number of Warmup Days

!-   ===========  ALL OBJECTS IN CLASS: SURFACECONVECTIONALGORITHM:INSIDE ===========

  SurfaceConvectionAlgorithm:Inside,TARP;

!-   ===========  ALL OBJECTS IN CLASS: SURFACECONVECTIONALGORITHM:OUTSIDE ===========

  SurfaceConvectionAlgorithm:Outside,TARP;

!-   ===========  ALL OBJECTS IN CLASS: HEATBALANCEALGORITHM ===========

  HeatBalanceAlgorithm,ConductionTransferFunction;

!-   ===========  ALL OBJECTS IN CLASS: TIMESTEP ===========

  Timestep,4;

!-   ===========  ALL OBJECTS IN CLASS: CONVERGENCELIMITS ===========

  ConvergenceLimits,
    15,                      !- Minimum System Timestep {minutes}
    5;                       !- Maximum HVAC Iterations

!-   ===========  ALL OBJECTS IN CLASS: SITE:LOCATION ===========

  Site:Location,
    Denver-Aurora-Buckley.AFB_CO_USA WMO=724695,  !- Name
    39.72,                   !- Latitude {deg}
    -104.75,                 !- Longitude {deg}
    -7.00,                   !- Time Zone {hr}
    1726.00;                 !- Elevation {m}

!-   ===========  ALL OBJECTS IN CLASS: SIZINGPERIOD:DESIGNDAY ===========

  SizingPeriod:DesignDay,
    Denver-Aurora-Buckley.AFB_CO_USA Ann Htg 99.6% Condns DB,  !- Name
    12,                      !- Month
    21,                      !- Day of Month
    WinterDesignDay,         !- Day Type
    -17.9,                   !- Maximum Dry-Bulb Temperature {C}
    0.0,                     !- Daily Dry-Bulb Temperature Range {deltaC}
    DefaultMultipliers,      !- Dry-Bulb Temperature Range Modifier Type
    ,                        !- Dry-Bulb Temperature Range Modifier Day Schedule Name
    Wetbulb,                 !- Humidity Condition Type
    -17.9,                   !- Wetbulb or DewPoint at Maximum Dry-Bulb {C}
    ,                        !- Humidity Condition Day Schedule Name
    ,                        !- Humidity Ratio at Maximum Dry-Bulb {kgWater/kgDryAir}
    ,                        !- Enthalpy at Maximum Dry-Bulb {J/kg}
    ,                        !- Daily Wet-Bulb Temperature Range {deltaC}
    82237.,                  !- Barometric Pressure {Pa}
    2.5,                     !- Wind Speed {m/s}
    180,                     !- Wind Direction {deg}
    No,                      !- Rain Indicator
    No,                      !- Snow Indicator
    No,                      !- Daylight Saving Time Indicator
    ASHRAEClearSky,          !- Solar Model Indicator
    ,                        !- Beam Solar Day Schedule Name
    ,                        !- Diffuse Solar Day Schedule Name
    ,                        !- ASHRAE Clear Sky Optical Depth for Beam Irradiance (taub) {dimensionless}
    ,                        !- ASHRAE Clear Sky Optical Depth for Diffuse Irradiance (taud) {dimensionless}
    0.00;                    !- Sky Clearness

  SizingPeriod:DesignDay,
    Denver-Aurora-Buckley.AFB_CO_USA Ann Clg .4% Condns DB=>MWB,  !- Name
    7,                       !- Month
    21,                      !- Day of Month
    SummerDesignDay,         !- Day Type
    33.9,                    !- Maximum Dry-Bulb Temperature {C}
    14.8,                    !- Daily Dry-Bulb Temperature Range {deltaC}
    DefaultMultipliers,      !- Dry-Bulb Temperature Range Modifier Type
    ,                        !- Dry-Bulb Temperature Range Modifier Day Schedule Name
    Wetbulb,                 !- Humidity Condition Type
    15,                      !- Wetbulb or DewPoint at Maximum Dry-Bulb {C}
    ,                        !- Humidity Condition Day Schedule Name
    ,                        !- Humidity Ratio at Maximum Dry-Bulb {kgWater/kgDryAir}
    ,                        !- Enthalpy at Maximum Dry-Bulb {J/kg}
    ,                        !- Daily Wet-Bulb Temperature Range {deltaC}
    82237.,                  !- Barometric Pressure {Pa}
    3.6,                     !- Wind Speed {m/s}
    30,                      !- Wind Direction {deg}
    No,                      !- Rain Indicator
    No,                      !- Snow Indicator
    No,                      !- Daylight Saving Time Indicator
    ASHRAETau,               !- Solar Model Indicator
    ,                        !- Beam Solar Day Schedule Name
    ,                        !- Diffuse Solar Day Schedule Name
    0.423,                   !- ASHRAE Clear Sky Optical Depth for Beam Irradiance (taub) {dimensionless}
    2.020;                   !- ASHRAE Clear Sky Optical Depth for Diffuse Irradiance (taud) {dimensionless}

!-   ===========  ALL OBJECTS IN CLASS: RUNPERIOD ===========

  RunPeriod,
    RUNPERIOD 1,             !- Name
    1,                       !- Begin Month
    1,                       !- Begin Day of Month
    ,                        !- Begin Year
    1,                       !- End Month
    31,                      !- End Day of Month
    ,                        !- End Year
    Sunday,                  !- Day of Week for Start Day
    No,                      !- Use Weather File Holidays and Special Days
    No,                      !- Use Weather File Daylight Saving Period
    No,                      !- Apply Weekend Holiday Rule
    Yes,                     !- Use Weather File Rain Indicators
    Yes;                     !- Use Weather File Snow Indicators

  RunPeriod,
    RUNPERIOD 2,             !- Name
    4,                       !- Begin Month
    1,                       !- Begin Day of Month
    ,                        !- Begin Year
    4,                       !- End Month
    30,                      !- End Day of Month
    ,                        !- End Year
    Sunday,                  !- Day of Week for Start Day
    No,                      !- Use Weather File Holidays and Special Days
    No,                      !- Use Weather File Daylight Saving Period
    No,                      !- Apply Weekend Holiday Rule
    Yes,                     !- Use Weather File Rain Indicators
    Yes;                     !- Use Weather File Snow Indicators

  RunPeriod,
    RUNPERIOD 3,             !- Name
    7,                       !- Begin Month
    1,                       !- Begin Day of Month
    ,                        !- Begin Year
    7,                       !- End Month
    31,                      !- End Day of Month
    ,                        !- End Year
    Sunday,                  !- Day of Week for Start Day
    No,                      !- Use Weather File Holidays and Special Days
    No,                      !- Use Weather File Daylight Saving Period
    No,                      !- Apply Weekend Holiday Rule
    Yes,                     !- Use Weather File Rain Indicators
    Yes;                     !- Use Weather File Snow Indicators

!-   ===========  ALL OBJECTS IN CLASS: RUNPERIODCONTROL:SPECIALDAYS ===========

  RunPeriodControl:SpecialDays,
    New Years Day,           !- Name
    01/01,                   !- Start Date
    1,                       !- Duration {days}
    Holiday;                 !- Special Day Type

  RunPeriodControl:SpecialDays,
    ML King Birthday,        !- Name
    3rd Monday in January,   !- Start Date
    1,                       !- Duration {days}
    Holiday;                 !- Special Day Type

  RunPeriodControl:SpecialDays,
    Washington's Birthday,   !- Name
    3rd Monday in February,  !- Start Date
    1,                       !- Duration {days}
    Holiday;                 !- Special Day Type

  RunPeriodControl:SpecialDays,
    Memorial Day,            !- Name
    Last Monday in May,      !- Start Date
    1,                       !- Duration {days}
    Holiday;                 !- Special Day Type

  RunPeriodControl:SpecialDays,
    Fourth of July,          !- Name
    07/04,                   !- Start Date
    1,                       !- Duration {days}
    Holiday;                 !- Special Day Type

  RunPeriodControl:SpecialDays,
    Labor Day,               !- Name
    1st Monday in September, !- Start Date
    1,                       !- Duration {days}
    Holiday;                 !- Special Day Type

  RunPeriodControl:SpecialDays,
    Columbus Day,            !- Name
    2nd Monday in October,   !- Start Date
    1,                       !- Duration {days}
    Holiday;                 !- Special Day Type

  RunPeriodControl:SpecialDays,
    Veterans Day,            !- Name
    11/11,                   !- Start Date
    1,                       !- Duration {days}
    Holiday;                 !- Special Day Type

  RunPeriodControl:SpecialDays,
    Thanksgiving Day,        !- Name
    4th Thursday in November,!- Start Date
    1,                       !- Duration {days}
    Holiday;                 !- Special Day Type

  RunPeriodControl:SpecialDays,
    Christmas Day,           !- Name
    12/25,                   !- Start Date
    1,                       !- Duration {days}
    Holiday;                 !- Special Day Type

!-   ===========  ALL OBJECTS IN CLASS: RUNPERIODCONTROL:DAYLIGHTSAVINGTIME ===========

  RunPeriodControl:DaylightSavingTime,
    2nd Sunday in March,     !- Start Date
    1st Sunday in November;  !- End Date

!-   ===========  ALL OBJECTS IN CLASS: SITE:GROUNDTEMPERATURE:FCFACTORMETHOD ===========

  Site:GroundTemperature:FCfactorMethod,7.1,3.0,-1.0,0.8,-0.2,4.8,6.1,13.7,22.2,22.7,21.7,18.5;

!-   ===========  ALL OBJECTS IN CLASS: SITE:WATERMAINSTEMPERATURE ===========

  Site:WaterMainsTemperature,
    Correlation,             !- Calculation Method
    ,                        !- Temperature Schedule Name
    9.95,                    !- Annual Average Outdoor Air Temperature {C}
    23.7;                    !- Maximum Difference In Monthly Average Outdoor Air Temperatures {deltaC}

!-   ===========  ALL OBJECTS IN CLASS: SCHEDULETYPELIMITS ===========

  ScheduleTypeLimits,
    Any Number,              !- Name
    0.0,                     !- Lower Limit Value
    10000,                   !- Upper Limit Value
    Continuous;              !- Numeric Type

  ScheduleTypeLimits,
    Fraction,                !- Name
    0.0,                     !- Lower Limit Value
    1.0,                     !- Upper Limit Value
    Continuous;              !- Numeric Type

  ScheduleTypeLimits,
    Temperature,             !- Name
    -60.0,                   !- Lower Limit Value
    200,                     !- Upper Limit Value
    Continuous;              !- Numeric Type

  ScheduleTypeLimits,
    On-Off Schedule,         !- Name
    0,                       !- Lower Limit Value
    1,                       !- Upper Limit Value
    Discrete;                !- Numeric Type

  ScheduleTypeLimits,
    Control Type,            !- Name
    0,                       !- Lower Limit Value
    4,                       !- Upper Limit Value
    Discrete;                !- Numeric Type

  ScheduleTypeLimits,
    On/Off,                  !- Name
    0,                       !- Lower Limit Value
    1,                       !- Upper Limit Value
    Discrete;                !- Numeric Type

  ScheduleTypeLimits,
    COMPACT HVAC Any Number; !- Name

!-   ===========  ALL OBJECTS IN CLASS: SCHEDULE:DAY:HOURLY ===========

  Schedule:Day:Hourly,
    Office Occ WD,           !- Name
    Fraction,                !- Schedule Type Limits Name
    0,                       !- Hour 1
    0,                       !- Hour 2
    0,                       !- Hour 3
    0,                       !- Hour 4
    0,                       !- Hour 5
    0,                       !- Hour 6
    0.11,                    !- Hour 7
    0.21,                    !- Hour 8
    1,                       !- Hour 9
    1,                       !- Hour 10
    1,                       !- Hour 11
    1,                       !- Hour 12
    0.53,                    !- Hour 13
    1,                       !- Hour 14
    1,                       !- Hour 15
    1,                       !- Hour 16
    1,                       !- Hour 17
    0.32,                    !- Hour 18
    0,                       !- Hour 19
    0,                       !- Hour 20
    0,                       !- Hour 21
    0,                       !- Hour 22
    0,                       !- Hour 23
    0;                       !- Hour 24

  Schedule:Day:Hourly,
    Office Occ WEH,          !- Name
    Fraction,                !- Schedule Type Limits Name
    0,                       !- Hour 1
    0,                       !- Hour 2
    0,                       !- Hour 3
    0,                       !- Hour 4
    0,                       !- Hour 5
    0,                       !- Hour 6
    0,                       !- Hour 7
    0,                       !- Hour 8
    0,                       !- Hour 9
    0,                       !- Hour 10
    0,                       !- Hour 11
    0,                       !- Hour 12
    0,                       !- Hour 13
    0,                       !- Hour 14
    0,                       !- Hour 15
    0,                       !- Hour 16
    0,                       !- Hour 17
    0,                       !- Hour 18
    0,                       !- Hour 19
    0,                       !- Hour 20
    0,                       !- Hour 21
    0,                       !- Hour 22
    0,                       !- Hour 23
    0;                       !- Hour 24

  Schedule:Day:Hourly,
    Office Light WD,         !- Name
    Fraction,                !- Schedule Type Limits Name
    0.18,                    !- Hour 1
    0.18,                    !- Hour 2
    0.18,                    !- Hour 3
    0.18,                    !- Hour 4
    0.18,                    !- Hour 5
    0.18,                    !- Hour 6
    0.23,                    !- Hour 7
    0.42,                    !- Hour 8
    0.90,                    !- Hour 9
    0.90,                    !- Hour 10
    0.90,                    !- Hour 11
    0.90,                    !- Hour 12
    0.80,                    !- Hour 13
    0.90,                    !- Hour 14
    0.90,                    !- Hour 15
    0.90,                    !- Hour 16
    0.90,                    !- Hour 17
    0.61,                    !- Hour 18
    0.18,                    !- Hour 19
    0.18,                    !- Hour 20
    0.18,                    !- Hour 21
    0.18,                    !- Hour 22
    0.18,                    !- Hour 23
    0.18;                    !- Hour 24

  Schedule:Day:Hourly,
    Office Light WD Sensor,  !- Name
    Fraction,                !- Schedule Type Limits Name
    0.18,                    !- Hour 1
    0.18,                    !- Hour 2
    0.18,                    !- Hour 3
    0.18,                    !- Hour 4
    0.18,                    !- Hour 5
    0.18,                    !- Hour 6
    0.23,                    !- Hour 7
    0.42,                    !- Hour 8
    0.77,                    !- Hour 9
    0.77,                    !- Hour 10
    0.77,                    !- Hour 11
    0.77,                    !- Hour 12
    0.68,                    !- Hour 13
    0.77,                    !- Hour 14
    0.77,                    !- Hour 15
    0.77,                    !- Hour 16
    0.77,                    !- Hour 17
    0.61,                    !- Hour 18
    0.18,                    !- Hour 19
    0.18,                    !- Hour 20
    0.18,                    !- Hour 21
    0.18,                    !- Hour 22
    0.18,                    !- Hour 23
    0.18;                    !- Hour 24

  Schedule:Day:Hourly,
    Office Light WEH,        !- Name
    Fraction,                !- Schedule Type Limits Name
    0.18,                    !- Hour 1
    0.18,                    !- Hour 2
    0.18,                    !- Hour 3
    0.18,                    !- Hour 4
    0.18,                    !- Hour 5
    0.18,                    !- Hour 6
    0.18,                    !- Hour 7
    0.18,                    !- Hour 8
    0.18,                    !- Hour 9
    0.18,                    !- Hour 10
    0.18,                    !- Hour 11
    0.18,                    !- Hour 12
    0.18,                    !- Hour 13
    0.18,                    !- Hour 14
    0.18,                    !- Hour 15
    0.18,                    !- Hour 16
    0.18,                    !- Hour 17
    0.18,                    !- Hour 18
    0.18,                    !- Hour 19
    0.18,                    !- Hour 20
    0.18,                    !- Hour 21
    0.18,                    !- Hour 22
    0.18,                    !- Hour 23
    0.18;                    !- Hour 24

  Schedule:Day:Hourly,
    Office Infiltration WD,  !- Name
    Any Number,              !- Schedule Type Limits Name
    1.00,                    !- Hour 1
    1.00,                    !- Hour 2
    1.00,                    !- Hour 3
    1.00,                    !- Hour 4
    1.00,                    !- Hour 5
    1.00,                    !- Hour 6
    1.00,                    !- Hour 7
    1.25,                    !- Hour 8
    1.25,                    !- Hour 9
    0.50,                    !- Hour 10
    0.50,                    !- Hour 11
    0.50,                    !- Hour 12
    0.50,                    !- Hour 13
    0.50,                    !- Hour 14
    0.50,                    !- Hour 15
    0.50,                    !- Hour 16
    1.25,                    !- Hour 17
    1.25,                    !- Hour 18
    1.00,                    !- Hour 19
    1.00,                    !- Hour 20
    1.00,                    !- Hour 21
    1.00,                    !- Hour 22
    1.00,                    !- Hour 23
    1.00;                    !- Hour 24

  Schedule:Day:Hourly,
    Office Infiltration WEH, !- Name
    Fraction,                !- Schedule Type Limits Name
    1.00,                    !- Hour 1
    1.00,                    !- Hour 2
    1.00,                    !- Hour 3
    1.00,                    !- Hour 4
    1.00,                    !- Hour 5
    1.00,                    !- Hour 6
    1.00,                    !- Hour 7
    1.00,                    !- Hour 8
    1.00,                    !- Hour 9
    1.00,                    !- Hour 10
    1.00,                    !- Hour 11
    1.00,                    !- Hour 12
    1.00,                    !- Hour 13
    1.00,                    !- Hour 14
    1.00,                    !- Hour 15
    1.00,                    !- Hour 16
    1.00,                    !- Hour 17
    1.00,                    !- Hour 18
    1.00,                    !- Hour 19
    1.00,                    !- Hour 20
    1.00,                    !- Hour 21
    1.00,                    !- Hour 22
    1.00,                    !- Hour 23
    1.00;                    !- Hour 24

  Schedule:Day:Hourly,
    Office Heating WD_YES_OPTIMUM,  !- Name
    Temperature,             !- Schedule Type Limits Name
    15.6,                    !- Hour 1
    15.6,                    !- Hour 2
    15.6,                    !- Hour 3
    15.6,                    !- Hour 4
    15.6,                    !- Hour 5
    15.6,                    !- Hour 6
    17.8,                    !- Hour 7
    20.0,                    !- Hour 8
    21.1,                    !- Hour 9
    21.1,                    !- Hour 10
    21.1,                    !- Hour 11
    21.1,                    !- Hour 12
    21.1,                    !- Hour 13
    21.1,                    !- Hour 14
    21.1,                    !- Hour 15
    21.1,                    !- Hour 16
    21.1,                    !- Hour 17
    21.1,                    !- Hour 18
    15.6,                    !- Hour 19
    15.6,                    !- Hour 20
    15.6,                    !- Hour 21
    15.6,                    !- Hour 22
    15.6,                    !- Hour 23
    15.6;                    !- Hour 24

  Schedule:Day:Hourly,
    Office Heating WD_NO_OPTIMUM,  !- Name
    Temperature,             !- Schedule Type Limits Name
    15.6,                    !- Hour 1
    15.6,                    !- Hour 2
    15.6,                    !- Hour 3
    15.6,                    !- Hour 4
    15.6,                    !- Hour 5
    15.6,                    !- Hour 6
    21.1,                    !- Hour 7
    21.1,                    !- Hour 8
    21.1,                    !- Hour 9
    21.1,                    !- Hour 10
    21.1,                    !- Hour 11
    21.1,                    !- Hour 12
    21.1,                    !- Hour 13
    21.1,                    !- Hour 14
    21.1,                    !- Hour 15
    21.1,                    !- Hour 16
    21.1,                    !- Hour 17
    21.1,                    !- Hour 18
    15.6,                    !- Hour 19
    15.6,                    !- Hour 20
    15.6,                    !- Hour 21
    15.6,                    !- Hour 22
    15.6,                    !- Hour 23
    15.6;                    !- Hour 24

  Schedule:Day:Hourly,
    Office Heating WEH,      !- Name
    Temperature,             !- Schedule Type Limits Name
    15.6,                    !- Hour 1
    15.6,                    !- Hour 2
    15.6,                    !- Hour 3
    15.6,                    !- Hour 4
    15.6,                    !- Hour 5
    15.6,                    !- Hour 6
    15.6,                    !- Hour 7
    15.6,                    !- Hour 8
    15.6,                    !- Hour 9
    15.6,                    !- Hour 10
    15.6,                    !- Hour 11
    15.6,                    !- Hour 12
    15.6,                    !- Hour 13
    15.6,                    !- Hour 14
    15.6,                    !- Hour 15
    15.6,                    !- Hour 16
    15.6,                    !- Hour 17
    15.6,                    !- Hour 18
    15.6,                    !- Hour 19
    15.6,                    !- Hour 20
    15.6,                    !- Hour 21
    15.6,                    !- Hour 22
    15.6,                    !- Hour 23
    15.6;                    !- Hour 24

  Schedule:Day:Hourly,
    Office Cooling WD_YES_OPTIMUM,  !- Name
    Temperature,             !- Schedule Type Limits Name
    29.4,                    !- Hour 1
    29.4,                    !- Hour 2
    29.4,                    !- Hour 3
    29.4,                    !- Hour 4
    29.4,                    !- Hour 5
    29.4,                    !- Hour 6
    27.8,                    !- Hour 7
    25.6,                    !- Hour 8
    23.9,                    !- Hour 9
    23.9,                    !- Hour 10
    23.9,                    !- Hour 11
    23.9,                    !- Hour 12
    23.9,                    !- Hour 13
    23.9,                    !- Hour 14
    23.9,                    !- Hour 15
    23.9,                    !- Hour 16
    23.9,                    !- Hour 17
    23.9,                    !- Hour 18
    29.4,                    !- Hour 19
    29.4,                    !- Hour 20
    29.4,                    !- Hour 21
    29.4,                    !- Hour 22
    29.4,                    !- Hour 23
    29.4;                    !- Hour 24

  Schedule:Day:Hourly,
    Office Cooling WD_NO_OPTIMUM,  !- Name
    Temperature,             !- Schedule Type Limits Name
    29.4,                    !- Hour 1
    29.4,                    !- Hour 2
    29.4,                    !- Hour 3
    29.4,                    !- Hour 4
    29.4,                    !- Hour 5
    29.4,                    !- Hour 6
    23.9,                    !- Hour 7
    23.9,                    !- Hour 8
    23.9,                    !- Hour 9
    23.9,                    !- Hour 10
    23.9,                    !- Hour 11
    23.9,                    !- Hour 12
    23.9,                    !- Hour 13
    23.9,                    !- Hour 14
    23.9,                    !- Hour 15
    23.9,                    !- Hour 16
    23.9,                    !- Hour 17
    23.9,                    !- Hour 18
    29.4,                    !- Hour 19
    29.4,                    !- Hour 20
    29.4,                    !- Hour 21
    29.4,                    !- Hour 22
    29.4,                    !- Hour 23
    29.4;                    !- Hour 24

  Schedule:Day:Hourly,
    Office Cooling WD_NO_SETBACK,  !- Name
    Temperature,             !- Schedule Type Limits Name
    23.9,                    !- Hour 1
    23.9,                    !- Hour 2
    23.9,                    !- Hour 3
    23.9,                    !- Hour 4
    23.9,                    !- Hour 5
    23.9,                    !- Hour 6
    23.9,                    !- Hour 7
    23.9,                    !- Hour 8
    23.9,                    !- Hour 9
    23.9,                    !- Hour 10
    23.9,                    !- Hour 11
    23.9,                    !- Hour 12
    23.9,                    !- Hour 13
    23.9,                    !- Hour 14
    23.9,                    !- Hour 15
    23.9,                    !- Hour 16
    23.9,                    !- Hour 17
    23.9,                    !- Hour 18
    23.9,                    !- Hour 19
    23.9,                    !- Hour 20
    23.9,                    !- Hour 21
    23.9,                    !- Hour 22
    23.9,                    !- Hour 23
    23.9;                    !- Hour 24

  Schedule:Day:Hourly,
    Office Cooling WEH,      !- Name
    Temperature,             !- Schedule Type Limits Name
    29.4,                    !- Hour 1
    29.4,                    !- Hour 2
    29.4,                    !- Hour 3
    29.4,                    !- Hour 4
    29.4,                    !- Hour 5
    29.4,                    !- Hour 6
    29.4,                    !- Hour 7
    29.4,                    !- Hour 8
    29.4,                    !- Hour 9
    29.4,                    !- Hour 10
    29.4,                    !- Hour 11
    29.4,                    !- Hour 12
    29.4,                    !- Hour 13
    29.4,                    !- Hour 14
    29.4,                    !- Hour 15
    29.4,                    !- Hour 16
    29.4,                    !- Hour 17
    29.4,                    !- Hour 18
    29.4,                    !- Hour 19
    29.4,                    !- Hour 20
    29.4,                    !- Hour 21
    29.4,                    !- Hour 22
    29.4,                    !- Hour 23
    29.4;                    !- Hour 24

  Schedule:Day:Hourly,
    Office FAN WD,           !- Name
    Fraction,                !- Schedule Type Limits Name
    0,                       !- Hour 1
    0,                       !- Hour 2
    0,                       !- Hour 3
    0,                       !- Hour 4
    0,                       !- Hour 5
    0,                       !- Hour 6
    0,                       !- Hour 7
    1,                       !- Hour 8
    1,                       !- Hour 9
    1,                       !- Hour 10
    1,                       !- Hour 11
    1,                       !- Hour 12
    1,                       !- Hour 13
    1,                       !- Hour 14
    1,                       !- Hour 15
    1,                       !- Hour 16
    1,                       !- Hour 17
    1,                       !- Hour 18
    0,                       !- Hour 19
    0,                       !- Hour 20
    0,                       !- Hour 21
    0,                       !- Hour 22
    0,                       !- Hour 23
    0;                       !- Hour 24

  Schedule:Day:Hourly,
    Office FAN WEH,          !- Name
    Fraction,                !- Schedule Type Limits Name
    0,                       !- Hour 1
    0,                       !- Hour 2
    0,                       !- Hour 3
    0,                       !- Hour 4
    0,                       !- Hour 5
    0,                       !- Hour 6
    0,                       !- Hour 7
    0,                       !- Hour 8
    0,                       !- Hour 9
    0,                       !- Hour 10
    0,                       !- Hour 11
    0,                       !- Hour 12
    0,                       !- Hour 13
    0,                       !- Hour 14
    0,                       !- Hour 15
    0,                       !- Hour 16
    0,                       !- Hour 17
    0,                       !- Hour 18
    0,                       !- Hour 19
    0,                       !- Hour 20
    0,                       !- Hour 21
    0,                       !- Hour 22
    0,                       !- Hour 23
    0;                       !- Hour 24

  Schedule:Day:Hourly,
    Office DHW WD,           !- Name
    Fraction,                !- Schedule Type Limits Name
    0.000,                   !- Hour 1
    0.000,                   !- Hour 2
    0.000,                   !- Hour 3
    0.000,                   !- Hour 4
    0.000,                   !- Hour 5
    0.000,                   !- Hour 6