!- Windows Line endings

  Version,24.1;

  SimulationControl,
    Yes,                     !- Do Zone Sizing Calculation
    Yes,                     !- Do System Sizing Calculation
    No,                      !- Do Plant Sizing Calculation
    No,                      !- Run Simulation for Sizing Periods
    YES,                     !- Run Simulation for Weather File Run Periods
    No,                      !- Do HVAC Sizing Simulation for Sizing Periods
    1;                       !- Maximum Number of HVAC Sizing Simulation Passes

  Building,
    ApartmentMidRise,        !- Name
    0,                       !- North Axis {deg}
    City,                    !- Terrain
    0.04,                    !- Loads Convergence Tolerance Value {W}
    0.4,                     !- Temperature Convergence Tolerance Value {deltaC}
    MinimalShadowing,        !- Solar Distribution
    15,                      !- Maximum Number of Warmup Days
    6;                       !- Minimum Number of Warmup Days

  SurfaceConvectionAlgorithm:Inside,TARP;

  SurfaceConvectionAlgorithm:Outside,TARP;

  HeatBalanceAlgorithm,ConductionTransferFunction;

  Timestep,4;

  ConvergenceLimits,
    15,                      !- Minimum System Timestep {minutes}
    5;                       !- Maximum HVAC Iterations

  Site:Location,
    Denver-Aurora-Buckley.AFB_CO_USA WMO=724695,  !- Name
    39.72,                   !- Latitude {deg}
    -104.75,                 !- Longitude {deg}
    -7,                      !- Time Zone {hr}
    1726;                    !- Elevation {m}

  SizingPeriod:DesignDay,
    Denver-Aurora-Buckley.AFB_CO_USA Ann Htg 99.6% Condns DB,  !- Name
    12,                      !- Month
    21,                      !- Day of Month
    WinterDesignDay,         !- Day Type
    -17.9,                   !- Maximum Dry-Bulb Temperature {C}
    0,                       !- Daily Dry-Bulb Temperature Range {deltaC}
    DefaultMultipliers,      !- Dry-Bulb Temperature Range Modifier Type
    ,                        !- Dry-Bulb Temperature Range Modifier Day Schedule Name
    Wetbulb,                 !- Humidity Condition Type
    -17.9,                   !- Wetbulb or DewPoint at Maximum Dry-Bulb {C}
    ,                        !- Humidity Condition Day Schedule Name
    ,                        !- Humidity Ratio at Maximum Dry-Bulb {kgWater/kgDryAir}
    ,                        !- Enthalpy at Maximum Dry-Bulb {J/kg}
    ,                        !- Daily Wet-Bulb Temperature Range {deltaC}
    82237,                   !- Barometric Pressure {Pa}
    2.5,                     !- Wind Speed {m/s}
    180,                     !- Wind Direction {deg}
    No,                      !- Rain Indicator
    No,                      !- Snow Indicator
    No,                      !- Daylight Saving Time Indicator
    ASHRAEClearSky,          !- Solar Model Indicator
    ,                        !- Beam Solar Day Schedule Name
    ,                        !- Diffuse Solar Day Schedule Name
    ,                        !- ASHRAE Clear Sky Optical Depth for Beam Irradiance (taub) {dimensionless}
    ,                        !- ASHRAE Clear Sky Optical Depth for Diffuse Irradiance (taud) {dimensionless}
    0;                       !- Sky Clearness

  SizingPeriod:DesignDay,
    Denver-Aurora-Buckley.AFB_CO_USA Ann Clg .4% Condns DB=>MWB,  !- Name
    7,                       !- Month
    21,                      !- Day of Month
    SummerDesignDay,         !- Day Type
    33.9,                    !- Maximum Dry-Bulb Temperature {C}
    14.8,                    !- Daily Dry-Bulb Temperature Range {deltaC}
    DefaultMultipliers,      !- Dry-Bulb Temperature Range Modifier Type
    ,                        !- Dry-Bulb Temperature Range Modifier Day Schedule Name
    Wetbulb,                 !- Humidity Condition Type
    15,                      !- Wetbulb or DewPoint at Maximum Dry-Bulb {C}
    ,                        !- Humidity Condition Day Schedule Name
    ,                        !- Humidity Ratio at Maximum Dry-Bulb {kgWater/kgDryAir}
    ,                        !- Enthalpy at Maximum Dry-Bulb {J/kg}
    ,                        !- Daily Wet-Bulb Temperature Range {deltaC}
    82237,                   !- Barometric Pressure {Pa}
    3.6,                     !- Wind Speed {m/s}
    30,                      !- Wind Direction {deg}
    No,                      !- Rain Indicator
    No,                      !- Snow Indicator
    No,                      !- Daylight Saving Time Indicator
    ASHRAETau,               !- Solar Model Indicator
    ,                        !- Beam Solar Day Schedule Name
    ,                        !- Diffuse Solar Day Schedule Name
    0.423,                   !- ASHRAE Clear Sky Optical Depth for Beam Irradiance (taub) {dimensionless}
    2.02;                    !- ASHRAE Clear Sky Optical Depth for Diffuse Irradiance (taud) {dimensionless}

  RunPeriod,
    RUNPERIOD 1,             !- Name
    1,                       !- Begin Month
    1,                       !- Begin Day of Month
    ,                        !- Begin Year
    1,                       !- End Month
    31,                      !- End Day of Month
    ,                        !- End Year
    Sunday,                  !- Day of Week for Start Day
    No,                      !- Use Weather File Holidays and Special Days
    No,                      !- Use Weather File Daylight Saving Period
    Yes,                     !- Apply Weekend Holiday Rule
    Yes,                     !- Use Weather File Rain Indicators
    Yes;                     !- Use Weather File Snow Indicators

  RunPeriod,
    RUNPERIOD 2,             !- Name
    4,                       !- Begin Month
    1,                       !- Begin Day of Month
    ,                        !- Begin Year
    4,                       !- End Month
    30,                      !- End Day of Month
    ,                        !- End Year
    Sunday,                  !- Day of Week for Start Day
    No,                      !- Use Weather File Holidays and Special Days
    No,                      !- Use Weather File Daylight Saving Period
    No,                      !- Apply Weekend Holiday Rule
    Yes,                     !- Use Weather File Rain Indicators
    Yes;                     !- Use Weather File Snow Indicators

  RunPeriod,
    RUNPERIOD 3,             !- Name
    7,                       !- Begin Month
    1,                       !- Begin Day of Month
    ,                        !- Begin Year
    7,                       !- End Month
    31,                      !- End Day of Month
    ,                        !- End Year
    Sunday,                  !- Day of Week for Start Day
    No,                      !- Use Weather File Holidays and Special Days
    No,                      !- Use Weather File Daylight Saving Period
    No,                      !- Apply Weekend Holiday Rule
    Yes,                     !- Use Weather File Rain Indicators
    Yes;                     !- Use Weather File Snow Indicators

  RunPeriodControl:SpecialDays,
    New Year's Day,          !- Name
    Jan 1,                   !- Start Date
    1,                       !- Duration {days}
    Holiday;                 !- Special Day Type

  RunPeriodControl:SpecialDays,
    MLK Day,                 !- Name
    3rd Monday in January,   !- Start Date
    1,                       !- Duration {days}
    Holiday;                 !- Special Day Type

  RunPeriodControl:SpecialDays,
    Presidents Day,          !- Name
    3rd Monday in February,  !- Start Date
    1,                       !- Duration {days}
    Holiday;                 !- Special Day Type

  RunPeriodControl:SpecialDays,
    Memorial Day,            !- Name
    Last Monday in May,      !- Start Date
    1,                       !- Duration {days}
    Holiday;                 !- Special Day Type

  RunPeriodControl:SpecialDays,
    Independence Day,        !- Name
    July 4,                  !- Start Date
    1,                       !- Duration {days}
    Holiday;                 !- Special Day Type

  RunPeriodControl:SpecialDays,
    Labor day,               !- Name
    1st Monday in September, !- Start Date
    1,                       !- Duration {days}
    Holiday;                 !- Special Day Type

  RunPeriodControl:SpecialDays,
    Columbus Day,            !- Name
    2nd Monday in October,   !- Start Date
    1,                       !- Duration {days}
    Holiday;                 !- Special Day Type

  RunPeriodControl:SpecialDays,
    Thanksgiving,            !- Name
    4th Thursday in November,!- Start Date
    1,                       !- Duration {days}
    Holiday;                 !- Special Day Type

  RunPeriodControl:SpecialDays,
    Veterans Day,            !- Name
    November 11,             !- Start Date
    1,                       !- Duration {days}
    Holiday;                 !- Special Day Type

  RunPeriodControl:SpecialDays,
    Christmas,               !- Name
    December 25,             !- Start Date
    1,                       !- Duration {days}
    Holiday;                 !- Special Day Type

  RunPeriodControl:DaylightSavingTime,
    2nd Sunday in March,     !- Start Date
    1st Sunday in November;  !- End Date

  Site:GroundTemperature:FCfactorMethod,7.1,3,-1,0.8,-0.2,4.8,6.1,13.7,22.2,22.7,21.7,18.5;

  Site:WaterMainsTemperature,
    Correlation,             !- Calculation Method
    ,                        !- Temperature Schedule Name
    9.95,                    !- Annual Average Outdoor Air Temperature {C}
    23.7;                    !- Maximum Difference In Monthly Average Outdoor Air Temperatures {deltaC}

  ScheduleTypeLimits,
    Fraction,                !- Name
    0,                       !- Lower Limit Value
    1,                       !- Upper Limit Value
    Continuous;              !- Numeric Type

  ScheduleTypeLimits,
    Temperature,             !- Name
    -100,                    !- Lower Limit Value
    100,                     !- Upper Limit Value
    Continuous;              !- Numeric Type

  ScheduleTypeLimits,
    Any Number;              !- Name

  ScheduleTypeLimits,
    COMPACT HVAC Any Number; !- Name

  Schedule:Compact,
    OCC_APT_SCH,             !- Name
    Fraction,                !- Schedule Type Limits Name
    Through: 12/31,          !- Field 1
    For: AllDays,            !- Field 2
    Until: 7:00,1.0,         !- Field 3
    Until: 8:00,0.85,        !- Field 5
    Until: 9:00,0.39,        !- Field 7
    Until: 16:00,0.25,       !- Field 9
    Until: 17:00,0.3,        !- Field 11
    Until: 18:00,0.52,       !- Field 13
    Until: 21:00,0.87,       !- Field 15
    Until: 24:00,1.0;        !- Field 17

  Schedule:Compact,
    OCC_OFF_SCH,             !- Name
    Fraction,                !- Schedule Type Limits Name
    Through: 12/31,          !- Field 1
    For: Weekdays,           !- Field 2
    Until: 8:00,0.0,         !- Field 3
    Until: 12:00,1.0,        !- Field 5
    Until: 13:00,0.5,        !- Field 7
    Until: 17:00,1.0,        !- Field 9
    Until: 24:00,0.0,        !- Field 11
    For AllOtherDays,        !- Field 13
    Until: 24:00,0.0;        !- Field 14

  Schedule:Compact,
    OCC_OFF_w_SB_SCH,        !- Name
    Fraction,                !- Schedule Type Limits Name
    Through: 12/31,          !- Field 1
    For: Weekdays,           !- Field 2
    Until: 01:00,0,          !- Field 3
    Until: 02:00,0,          !- Field 5
    Until: 03:00,0,          !- Field 7
    Until: 04:00,0,          !- Field 9
    Until: 05:00,0,          !- Field 11
    Until: 06:00,0,          !- Field 13
    Until: 07:00,0,          !- Field 15
    Until: 08:00,0,          !- Field 17
    Until: 09:00,1,          !- Field 19
    Until: 10:00,1,          !- Field 21
    Until: 11:00,1,          !- Field 23
    Until: 12:00,1,          !- Field 25
    Until: 13:00,0,          !- Field 27
    Until: 14:00,1,          !- Field 29
    Until: 15:00,0,          !- Field 31
    Until: 16:00,1,          !- Field 33
    Until: 17:00,1,          !- Field 35
    Until: 18:00,0,          !- Field 37
    Until: 19:00,0,          !- Field 39
    Until: 20:00,0,          !- Field 41
    Until: 21:00,0,          !- Field 43
    Until: 22:00,0,          !- Field 45
    Until: 23:00,0,          !- Field 47
    Until: 24:00,0,          !- Field 49
    For: AllOtherDays,       !- Field 51
    Until: 01:00,0,          !- Field 52
    Until: 02:00,0,          !- Field 54
    Until: 03:00,0,          !- Field 56
    Until: 04:00,0,          !- Field 58
    Until: 05:00,0,          !- Field 60
    Until: 06:00,0,          !- Field 62
    Until: 07:00,0,          !- Field 64
    Until: 08:00,0,          !- Field 66
    Until: 09:00,0,          !- Field 68
    Until: 10:00,0,          !- Field 70
    Until: 11:00,0,          !- Field 72
    Until: 12:00,0,          !- Field 74
    Until: 13:00,0,          !- Field 76
    Until: 14:00,0,          !- Field 78
    Until: 15:00,0,          !- Field 80
    Until: 16:00,0,          !- Field 82
    Until: 17:00,0,          !- Field 84
    Until: 18:00,0,          !- Field 86
    Until: 19:00,0,          !- Field 88
    Until: 20:00,0,          !- Field 90
    Until: 21:00,0,          !- Field 92
    Until: 22:00,0,          !- Field 94
    Until: 23:00,0,          !- Field 96
    Until: 24:00,0;          !- Field 98

  Schedule:Compact,
    LTG_APT_SCH,             !- Name
    Fraction,                !- Schedule Type Limits Name
    Through: 12/31,          !- Field 1
    For: AllDays,            !- Field 2
    Until: 4:00,0.011316031, !- Field 3
    Until: 5:00,0.033948092, !- Field 5
    Until: 6:00,0.0735542,   !- Field 7
    Until: 7:00,0.079212215, !- Field 9
    Until: 8:00,0.0735542,   !- Field 11
    Until: 9:00,0.033948092, !- Field 13
    Until: 15:00,0.022632061,!- Field 15
    Until: 16:00,0.039606108,!- Field 17
    Until: 17:00,0.079212215,!- Field 19
    Until: 18:00,0.113160307,!- Field 21
    Until: 19:00,0.152766415,!- Field 23
    Until: 21:00,0.181056492,!- Field 25
    Until: 22:00,0.124476338,!- Field 27
    Until: 23:00,0.067896184,!- Field 29
    Until: 24:00,0.028290077;!- Field 31

  Schedule:Compact,
    LTG_COR_SCH,             !- Name
    Fraction,                !- Schedule Type Limits Name
    Through: 12/31,          !- Field 1
    For: AllDays,            !- Field 2
    Until: 24:00,0.53144;    !- Field 3

  Schedule:Compact,
    LTG_OFF_SCH,             !- Name
    Fraction,                !- Schedule Type Limits Name
    Through: 12/31,          !- Field 1
    For: SummerDesignDay,    !- Field 2
    Until: 24:00,1,          !- Field 3
    For: WinterDesignDay,    !- Field 5
    Until: 24:00,0,          !- Field 6
    For: Weekdays,           !- Field 8
    Until: 8:00,0.18,        !- Field 9
    Until: 12:00,0.76932,    !- Field 11
    Until: 13:00,0.68384,    !- Field 13
    Until: 17:00,0.76932,    !- Field 15
    Until: 24:00,0.18,       !- Field 17
    For: AllOtherDays,       !- Field 19
    Until: 24:00,0.18;       !- Field 20

  Schedule:Compact,
    EQP_APT_SCH,             !- Name
    Fraction,                !- Schedule Type Limits Name
    Through: 12/31,          !- Field 1
    For: AllDays,            !- Field 2
    Until: 1:00,0.45,        !- Field 3
    Until: 2:00,0.41,        !- Field 5
    Until: 3:00,0.39,        !- Field 7
    Until: 5:00,0.38,        !- Field 9
    Until: 6:00,0.43,        !- Field 11
    Until: 7:00,0.54,        !- Field 13
    Until: 8:00,0.65,        !- Field 15
    Until: 9:00,0.66,        !- Field 17
    Until: 10:00,0.67,       !- Field 19
    Until: 11:00,0.69,       !- Field 21
    Until: 12:00,0.70,       !- Field 23
    Until: 13:00,0.69,       !- Field 25
    Until: 14:00,0.66,       !- Field 27
    Until: 15:00,0.65,       !- Field 29
    Until: 16:00,0.68,       !- Field 31
    Until: 17:00,0.80,       !- Field 33
    Until: 19:00,1.0,        !- Field 35
    Until: 20:00,0.93,       !- Field 37
    Until: 21:00,0.89,       !- Field 39
    Until: 22:00,0.85,       !- Field 41
    Until: 23:00,0.71,       !- Field 43
    Until: 24:00,0.58;       !- Field 45

  Schedule:Compact,
    EQP_OFF_SCH,             !- Name
    Fraction,                !- Schedule Type Limits Name
    Through: 12/31,          !- Field 1
    For: SummerDesignDay,    !- Field 2
    Until: 24:00,1,          !- Field 3
    For: WinterDesignDay,    !- Field 5
    Until: 24:00,0,          !- Field 6
    For: Weekdays,           !- Field 8
    Until: 7:00,0.218625,    !- Field 9
    Until: 8:00,0.33125,     !- Field 11
    Until: 12:00,0.92575,    !- Field 13
    Until: 13:00,0.870205,   !- Field 15
    Until: 17:00,0.92575,    !- Field 17
    Until: 18:00,0.33125,    !- Field 19
    Until: 24:00,0.218625,   !- Field 21
    For AllOtherDays,        !- Field 23
    Until: 24:00,0.218625;   !- Field 24

  Schedule:Compact,
    INF_APT_SCH,             !- Name
    Fraction,                !- Schedule Type Limits Name
    Through: 12/31,          !- Field 1
    For: AllDays,            !- Field 2
    Until: 24:00,1.0;        !- Field 3

  Schedule:Compact,
    INF_OFF_SCH,             !- Name
    Fraction,                !- Schedule Type Limits Name
    Through: 12/31,          !- Field 1
    For: AllDays,            !- Field 2
    Until: 24:00,1.0;        !- Field 3

  Schedule:Compact,
    INF_COR_SCH,             !- Name
    Fraction,                !- Schedule Type Limits Name
    Through: 12/31,          !- Field 1
    For: AllDays,            !- Field 2
    Until: 24:00,1.0;        !- Field 3

  Schedule:Compact,
    INFIL_Door_Opening_SCH,  !- Name
    fraction,                !- Schedule Type Limits Name
    Through: 12/31,          !- Field 1
    For: AllDays,            !- Field 2
    Until: 06:00,0.0,        !- Field 3
    Until: 07:00,0.131,      !- Field 5
    Until: 08:00,1.0,        !- Field 7
    Until: 17:00,0.131,      !- Field 9
    Until: 18:00,1.0,        !- Field 11
    Until: 22:00,0.131,      !- Field 13
    Until: 24:00,0.0;        !- Field 15

  Schedule:Compact,
    HTGSETP_APT_SCH,         !- Name
    Temperature,             !- Schedule Type Limits Name
    THROUGH: 12/31,          !- Field 1
    FOR:AllDays,             !- Field 2
    UNTIL: 24:00,21.1;       !- Field 3

  Schedule:Compact,
    CLGSETP_APT_SCH,         !- Name
    Temperature,             !- Schedule Type Limits Name
    THROUGH: 12/31,          !- Field 1
    FOR:AllDays,             !- Field 2
    UNTIL: 24:00,24;         !- Field 3

  Schedule:Compact,
    S HTGSETP_APT_SCH,       !- Name
    Temperature,             !- Schedule Type Limits Name
    THROUGH: 12/31,          !- Field 1
    FOR:AllDays,             !- Field 2
    UNTIL: 24:00,21.1;       !- Field 3

  Schedule:Compact,
    S CLGSETP_APT_SCH,       !- Name
    Temperature,             !- Schedule Type Limits Name
    THROUGH: 12/31,          !- Field 1
    FOR:AllDays,             !- Field 2
    UNTIL: 24:00,24;         !- Field 3

  Schedule:Compact,
    N HTGSETP_APT_SCH,       !- Name
    Temperature,             !- Schedule Type Limits Name
    THROUGH: 12/31,          !- Field 1
    FOR:AllDays,             !- Field 2
    UNTIL: 24:00,21.1;       !- Field 3

  Schedule:Compact,
    N CLGSETP_APT_SCH,       !- Name
    Temperature,             !- Schedule Type Limits Name
    THROUGH: 12/31,          !- Field 1
    FOR:AllDays,             !- Field 2
    UNTIL: 24:00,24;         !- Field 3

  Schedule:Compact,
    HTGSETP_OFF_SCH_NO_OPTIMUM,  !- Name
    Temperature,             !- Schedule Type Limits Name
    THROUGH: 12/31,          !- Field 1
    FOR: WinterDesignDay,    !- Field 2
    UNTIL: 7:00,15.6,        !- Field 3
    UNTIL: 8:00,18.3,        !- Field 5
    UNTIL:17:00,21.1,        !- Field 7
    UNTIL: 18:00,18.3,       !- Field 9
    UNTIL: 24:00,15.6,       !- Field 11
    FOR: Weekdays,           !- Field 13
    UNTIL: 7:00,15.6,        !- Field 14
    UNTIL: 8:00,21.1,        !- Field 16
    UNTIL:17:00,21.1,        !- Field 18
    UNTIL: 18:00,18.3,       !- Field 20
    UNTIL: 24:00,15.6,       !- Field 22
    FOR: SummerDesignDay AllOtherDays, !- Field 24
    UNTIL: 24:00,15.6;       !- Field 25

  Schedule:Compact,
    HTGSETP_OFF_SCH_NO_OPTIMUM_W_SB,  !- Name
    Temperature,             !- Schedule Type Limits Name
    Through: 12/31,          !- Field 1
    For: Weekdays,           !- Field 2
    Until: 01:00,15.6,       !- Field 3
    Until: 02:00,15.6,       !- Field 5
    Until: 03:00,15.6,       !- Field 7
    Until: 04:00,15.6,       !- Field 9
    Until: 05:00,15.6,       !- Field 11
    Until: 06:00,15.6,       !- Field 13
    Until: 07:00,15.6,       !- Field 15
    Until: 08:00,21.1,       !- Field 17
    Until: 09:00,21.1,       !- Field 19
    Until: 10:00,21.1,       !- Field 21
    Until: 11:00,21.1,       !- Field 23
    Until: 12:00,21.1,       !- Field 25
    Until: 13:00,20.5444444444444, !- Field 27
    Until: 14:00,21.1,       !- Field 29
    Until: 15:00,20.5444444444444, !- Field 31
    Until: 16:00,21.1,       !- Field 33
    Until: 17:00,21.1,       !- Field 35
    Until: 18:00,18.3,       !- Field 37
    Until: 19:00,15.6,       !- Field 39
    Until: 20:00,15.6,       !- Field 41
    Until: 21:00,15.6,       !- Field 43
    Until: 22:00,15.6,       !- Field 45
    Until: 23:00,15.6,       !- Field 47
    Until: 24:00,15.6,       !- Field 49
    For: WinterDesignDay,    !- Field 51
    Until: 7:00,15.6,        !- Field 52
    Until: 8:00,18.3,        !- Field 54
    Until:17:00,21.1,        !- Field 56
    Until: 18:00,18.3,       !- Field 58
    Until: 24:00,15.6,       !- Field 60
    For: SummerDesignDay,    !- Field 62
    Until: 24:00,15.6,       !- Field 63
    For: AllOtherDays,       !- Field 65
    Until: 01:00,15.6,       !- Field 66
    Until: 02:00,15.6,       !- Field 68
    Until: 03:00,15.6,       !- Field 70
    Until: 04:00,15.6,       !- Field 72
    Until: 05:00,15.6,       !- Field 74
    Until: 06:00,15.6,       !- Field 76
    Until: 07:00,15.6,       !- Field 78
    Until: 08:00,15.6,       !- Field 80
    Until: 09:00,15.6,       !- Field 82
    Until: 10:00,15.6,       !- Field 84
    Until: 11:00,15.6,       !- Field 86
    Until: 12:00,15.6,       !- Field 88
    Until: 13:00,15.6,       !- Field 90
    Until: 14:00,15.6,       !- Field 92
    Until: 15:00,15.6,       !- Field 94
    Until: 16:00,15.6,       !- Field 96
    Until: 17:00,15.6,       !- Field 98
    Until: 18:00,15.6,       !- Field 100
    Until: 19:00,15.6,       !- Field 102
    Until: 20:00,15.6,       !- Field 104
    Until: 21:00,15.6,       !- Field 106
    Until: 22:00,15.6,       !- Field 108
    Until: 23:00,15.6,       !- Field 110
    Until: 24:00,15.6;       !- Field 112

  Schedule:Compact,
    HTGSETP_OFF_SCH_YES_OPTIMUM,  !- Name
    Temperature,             !- Schedule Type Limits Name
    THROUGH: 12/31,          !- Field 1
    FOR: WinterDesignDay,    !- Field 2
    UNTIL: 7:00,15.6,        !- Field 3
    UNTIL: 8:00,18.3,        !- Field 5
    UNTIL: 17:00,21.1,       !- Field 7
    UNTIL: 18:00,18.3,       !- Field 9
    UNTIL: 24:00,15.6,       !- Field 11
    FOR: Weekdays,           !- Field 13
    UNTIL: 7:00,15.6,        !- Field 14
    UNTIL: 8:00,17.8,        !- Field 16
    UNTIL: 9:00,20.0,        !- Field 18
    UNTIL: 17:00,21.1,       !- Field 20
    UNTIL: 18:00,18.3,       !- Field 22
    UNTIL: 24:00,15.6,       !- Field 24
    FOR: SummerDesignDay AllOtherDays, !- Field 26
    UNTIL: 24:00,15.6;       !- Field 27

  Schedule:Compact,
    CLGSETP_OFF_SCH_NO_OPTIMUM,  !- Name
    Temperature,             !- Schedule Type Limits Name
    THROUGH: 12/31,          !- Field 1
    FOR: SummerDesignDay,    !- Field 2
    UNTIL: 7:00,29.4,        !- Field 3
    UNTIL: 8:00,26.7,        !- Field 5
    UNTIL:17:00,24,          !- Field 7
    UNTIL: 18:00,26.7,       !- Field 9
    UNTIL: 24:00,29.4,       !- Field 11
    FOR:Weekdays,            !- Field 13
    UNTIL: 7:00,29.4,        !- Field 14
    UNTIL: 8:00,24,          !- Field 16
    UNTIL:17:00,24,          !- Field 18
    UNTIL: 18:00,26.7,       !- Field 20
    UNTIL: 24:00,29.4,       !- Field 22
    FOR: WinterDesignDay AllOtherDays, !- Field 24
    UNTIL: 24:00,29.4;       !- Field 25

  Schedule:Compact,
    CLGSETP_OFF_SCH_NO_OPTIMUM_W_SB,  !- Name
    Temperature,             !- Schedule Type Limits Name
    Through: 12/31,          !- Field 1
    For: Weekdays,           !- Field 2
    Until: 01:00,29.4,       !- Field 3
    Until: 02:00,29.4,       !- Field 5
    Until: 03:00,29.4,       !- Field 7
    Until: 04:00,29.4,       !- Field 9
    Until: 05:00,29.4,       !- Field 11
    Until: 06:00,29.4,       !- Field 13
    Until: 07:00,29.4,       !- Field 15
    Until: 08:00,23.9,       !- Field 17
    Until: 09:00,23.9,       !- Field 19
    Until: 10:00,23.9,       !- Field 21
    Until: 11:00,23.9,       !- Field 23
    Until: 12:00,23.9,       !- Field 25
    Until: 13:00,24.4555555555556, !- Field 27
    Until: 14:00,23.9,       !- Field 29
    Until: 15:00,24.4555555555556, !- Field 31
    Until: 16:00,23.9,       !- Field 33
    Until: 17:00,23.9,       !- Field 35
    Until: 18:00,26.7,       !- Field 37
    Until: 19:00,29.4,       !- Field 39
    Until: 20:00,29.4,       !- Field 41
    Until: 21:00,29.4,       !- Field 43
    Until: 22:00,29.4,       !- Field 45
    Until: 23:00,29.4,       !- Field 47
    Until: 24:00,29.4,       !- Field 49
    For: SummerDesignDay,    !- Field 51
    Until: 7:00,29.4,        !- Field 52
    Until: 8:00,26.7,        !- Field 54
    Until:17:00,23.9,        !- Field 56
    Until: 18:00,26.7,       !- Field 58
    Until: 24:00,29.4,       !- Field 60
    For: WinterDesignDay,    !- Field 62
    Until: 24:00,29.4,       !- Field 63
    For: AllOtherDays,       !- Field 65
    Until: 01:00,29.4,       !- Field 66
    Until: 02:00,29.4,       !- Field 68
    Until: 03:00,29.4,       !- Field 70
    Until: 04:00,29.4,       !- Field 72
    Until: 05:00,29.4,       !- Field 74
    Until: 06:00,29.4,       !- Field 76
    Until: 07:00,29.4,       !- Field 78
    Until: 08:00,29.4,       !- Field 80
    Until: 09:00,29.4,       !- Field 82
    Until: 10:00,29.4,       !- Field 84
    Until: 11:00,29.4,       !- Field 86
    Until: 12:00,29.4,       !- Field 88
    Until: 13:00,29.4,       !- Field 90
    Until: 14:00,29.4,       !- Field 92
    Until: 15:00,29.4,       !- Field 94
    Until: 16:00,29.4,       !- Field 96
    Until: 17:00,29.4,       !- Field 98
    Until: 18:00,29.4,       !- Field 100
    Until: 19:00,29.4,       !- Field 102
    Until: 20:00,29.4,       !- Field 104
    Until: 21:00,29.4,       !- Field 106
    Until: 22:00,29.4,       !- Field 108
    Until: 23:00,29.4,       !- Field 110
    Until: 24:00,29.4;       !- Field 112

  Schedule:Compact,
    CLGSETP_OFF_SCH_YES_OPTIMUM,  !- Name
    Temperature,             !- Schedule Type Limits Name
    THROUGH: 12/31,          !- Field 1
    FOR: SummerDesignDay,    !- Field 2
    UNTIL: 7:00,29.4,        !- Field 3
    UNTIL: 8:00,26.7,        !- Field 5
    UNTIL: 17:00,24,         !- Field 7
    UNTIL: 18:00,26.7,       !- Field 9
    UNTIL: 24:00,29.4,       !- Field 11
    FOR:Weekdays,            !- Field 13
    UNTIL: 7:00,29.4,        !- Field 14
    UNTIL: 8:00,27.8,        !- Field 16
    UNTIL: 9:00,25.6,        !- Field 18
    UNTIL: 17:00,24,         !- Field 20
    UNTIL: 18:00,26.7,       !- Field 22
    UNTIL: 24:00,29.4,       !- Field 24
    FOR: WinterDesignDay AllOtherDays, !- Field 26
    UNTIL: 24:00,29.4;       !- Field 27

  Schedule:Compact,
    CLGSETP_OFF_SCH_No_Setback,  !- Name
    Temperature,             !- Schedule Type Limits Name
    THROUGH: 12/31,          !- Field 1
    FOR: SummerDesignDay,    !- Field 2
    UNTIL: 7:00,29.4,        !- Field 3
    UNTIL: 8:00,26.7,        !- Field 5
    UNTIL: 17:00,23.9,       !- Field 7
    UNTIL: 18:00,26.7,       !- Field 9
    UNTIL: 24:00,29.4,       !- Field 11
    FOR:Weekdays,            !- Field 13
    UNTIL: 7:00,23.9,        !- Field 14
    UNTIL: 8:00,23.9,        !- Field 16
    UNTIL:17:00,23.9,        !- Field 18
    UNTIL: 18:00,23.9,       !- Field 20
    UNTIL: 24:00,23.9,       !- Field 22
    FOR: WinterDesignDay AllOtherDays, !- Field 24
    UNTIL: 24:00,23.9;       !- Field 25

  Schedule:Compact,
    Activity Schedule,       !- Name
    Any Number,              !- Schedule Type Limits Name
    Through: 12/31,          !- Field 1
    For: AllDays,            !- Field 2
    Until: 24:00,95;         !- Field 3

  Schedule:Compact,
    All Off,                 !- Name
    Fraction,                !- Schedule Type Limits Name
    Through: 12/31,          !- Field 1
    For: AllDays,            !- Field 2
    Until: 24:00,0.0;        !- Field 3

  Schedule:Compact,
    All On,                  !- Name
    Fraction,                !- Schedule Type Limits Name
    Through: 12/31,          !- Field 1
    For: AllDays,            !- Field 2
    Until: 24:00,1;          !- Field 3

  Schedule:Compact,
    AllOn_Except_DD,         !- Name
    Fraction,                !- Schedule Type Limits Name
    Through: 12/31,          !- Field 1
    For: SummerDesignDay,    !- Field 2
    Until: 24:00,0,          !- Field 3
    For: WinterDesignDay,    !- Field 5
    Until: 24:00,0,          !- Field 6
    For: AllOtherDays,       !- Field 8
    Until: 24:00,1;          !- Field 9

  Schedule:Compact,
    Exterior_Lgt_ALWAYS_ON,  !- Name
    Fraction,                !- Schedule Type Limits Name
    Through: 12/31,          !- Field 1
    For: AllDays,            !- Field 2
    Until: 24:00,1;          !- Field 3

  Schedule:Compact,
    COMPACT HVAC-ALWAYS 1,   !- Name
    COMPACT HVAC Any Number, !- Schedule Type Limits Name
    Through: 12/31,          !- Field 1
    For: AllDays,            !- Field 2