!-Generator IDFEditor 1.51
!-Option SortedOrder UseSpecialFormat
!-NOTE: All comments with '!-' are ignored by the IDFEditor and are generated automatically.
!-      Use '!' comments if they need to be retained when using the IDFEditor.
!-   ===========  ALL OBJECTS IN CLASS: VERSION ===========

  Version,24.1;

!-   ===========  ALL OBJECTS IN CLASS: SIMULATIONCONTROL ===========

  SimulationControl,
    Yes,                     !- Do Zone Sizing Calculation
    Yes,                     !- Do System Sizing Calculation
    Yes,                     !- Do Plant Sizing Calculation
    No,                      !- Run Simulation for Sizing Periods
    YES,                     !- Run Simulation for Weather File Run Periods
    No,                      !- Do HVAC Sizing Simulation for Sizing Periods
    1;                       !- Maximum Number of HVAC Sizing Simulation Passes

!-   ===========  ALL OBJECTS IN CLASS: BUILDING ===========

  Building,
    RestaurantFastFood,      !- Name
    0.0000,                  !- North Axis {deg}
    City,                    !- Terrain
    0.0400,                  !- Loads Convergence Tolerance Value {W}
    0.2000,                  !- Temperature Convergence Tolerance Value {deltaC}
    MinimalShadowing,        !- Solar Distribution
    15,                      !- Maximum Number of Warmup Days
    6;                       !- Minimum Number of Warmup Days

!-   ===========  ALL OBJECTS IN CLASS: SHADOWCALCULATION ===========

  ShadowCalculation,
    PolygonClipping,         !- Shading Calculation Method
    Periodic,                !- Shading Calculation Update Frequency Method
    30,                      !- Shading Calculation Update Frequency
    200;                     !- Maximum Figures in Shadow Overlap Calculations

!-   ===========  ALL OBJECTS IN CLASS: SURFACECONVECTIONALGORITHM:INSIDE ===========

  SurfaceConvectionAlgorithm:Inside,TARP;

!-   ===========  ALL OBJECTS IN CLASS: SURFACECONVECTIONALGORITHM:OUTSIDE ===========

  SurfaceConvectionAlgorithm:Outside,TARP;

!-   ===========  ALL OBJECTS IN CLASS: HEATBALANCEALGORITHM ===========

  HeatBalanceAlgorithm,ConductionTransferFunction,200.0000;

!-   ===========  ALL OBJECTS IN CLASS: TIMESTEP ===========

  Timestep,4;

!-   ===========  ALL OBJECTS IN CLASS: CONVERGENCELIMITS ===========

  ConvergenceLimits,
    15,                      !- Minimum System Timestep {minutes}
    5;                       !- Maximum HVAC Iterations

!-   ===========  ALL OBJECTS IN CLASS: SITE:LOCATION ===========

  Site:Location,
    Denver-Aurora-Buckley.AFB_CO_USA WMO=724695,  !- Name
    39.72,                   !- Latitude {deg}
    -104.75,                 !- Longitude {deg}
    -7.00,                   !- Time Zone {hr}
    1726.00;                 !- Elevation {m}

!-   ===========  ALL OBJECTS IN CLASS: SIZINGPERIOD:DESIGNDAY ===========

  SizingPeriod:DesignDay,
    Denver-Aurora-Buckley.AFB_CO_USA Ann Htg 99.6% Condns DB,  !- Name
    12,                      !- Month
    21,                      !- Day of Month
    WinterDesignDay,         !- Day Type
    -17.9,                   !- Maximum Dry-Bulb Temperature {C}
    0.0,                     !- Daily Dry-Bulb Temperature Range {deltaC}
    DefaultMultipliers,      !- Dry-Bulb Temperature Range Modifier Type
    ,                        !- Dry-Bulb Temperature Range Modifier Day Schedule Name
    Wetbulb,                 !- Humidity Condition Type
    -17.9,                   !- Wetbulb or DewPoint at Maximum Dry-Bulb {C}
    ,                        !- Humidity Condition Day Schedule Name
    ,                        !- Humidity Ratio at Maximum Dry-Bulb {kgWater/kgDryAir}
    ,                        !- Enthalpy at Maximum Dry-Bulb {J/kg}
    ,                        !- Daily Wet-Bulb Temperature Range {deltaC}
    82237.,                  !- Barometric Pressure {Pa}
    2.5,                     !- Wind Speed {m/s}
    180,                     !- Wind Direction {deg}
    No,                      !- Rain Indicator
    No,                      !- Snow Indicator
    No,                      !- Daylight Saving Time Indicator
    ASHRAEClearSky,          !- Solar Model Indicator
    ,                        !- Beam Solar Day Schedule Name
    ,                        !- Diffuse Solar Day Schedule Name
    ,                        !- ASHRAE Clear Sky Optical Depth for Beam Irradiance (taub) {dimensionless}
    ,                        !- ASHRAE Clear Sky Optical Depth for Diffuse Irradiance (taud) {dimensionless}
    0.00;                    !- Sky Clearness

  SizingPeriod:DesignDay,
    Denver-Aurora-Buckley.AFB_CO_USA Ann Clg .4% Condns DB=>MWB,  !- Name
    7,                       !- Month
    21,                      !- Day of Month
    SummerDesignDay,         !- Day Type
    33.9,                    !- Maximum Dry-Bulb Temperature {C}
    14.8,                    !- Daily Dry-Bulb Temperature Range {deltaC}
    DefaultMultipliers,      !- Dry-Bulb Temperature Range Modifier Type
    ,                        !- Dry-Bulb Temperature Range Modifier Day Schedule Name
    Wetbulb,                 !- Humidity Condition Type
    15,                      !- Wetbulb or DewPoint at Maximum Dry-Bulb {C}
    ,                        !- Humidity Condition Day Schedule Name
    ,                        !- Humidity Ratio at Maximum Dry-Bulb {kgWater/kgDryAir}
    ,                        !- Enthalpy at Maximum Dry-Bulb {J/kg}
    ,                        !- Daily Wet-Bulb Temperature Range {deltaC}
    82237.,                  !- Barometric Pressure {Pa}
    3.6,                     !- Wind Speed {m/s}
    30,                      !- Wind Direction {deg}
    No,                      !- Rain Indicator
    No,                      !- Snow Indicator
    No,                      !- Daylight Saving Time Indicator
    ASHRAETau,               !- Solar Model Indicator
    ,                        !- Beam Solar Day Schedule Name
    ,                        !- Diffuse Solar Day Schedule Name
    0.423,                   !- ASHRAE Clear Sky Optical Depth for Beam Irradiance (taub) {dimensionless}
    2.020;                   !- ASHRAE Clear Sky Optical Depth for Diffuse Irradiance (taud) {dimensionless}

!-   ===========  ALL OBJECTS IN CLASS: RUNPERIOD ===========

  RunPeriod,
    RUNPERIOD 1,             !- Name
    1,                       !- Begin Month
    1,                       !- Begin Day of Month
    ,                        !- Begin Year
    1,                       !- End Month
    31,                      !- End Day of Month
    ,                        !- End Year
    Sunday,                  !- Day of Week for Start Day
    No,                      !- Use Weather File Holidays and Special Days
    No,                      !- Use Weather File Daylight Saving Period
    No,                      !- Apply Weekend Holiday Rule
    Yes,                     !- Use Weather File Rain Indicators
    Yes;                     !- Use Weather File Snow Indicators

  RunPeriod,
    RUNPERIOD 2,             !- Name
    4,                       !- Begin Month
    1,                       !- Begin Day of Month
    ,                        !- Begin Year
    4,                       !- End Month
    30,                      !- End Day of Month
    ,                        !- End Year
    Sunday,                  !- Day of Week for Start Day
    No,                      !- Use Weather File Holidays and Special Days
    No,                      !- Use Weather File Daylight Saving Period
    No,                      !- Apply Weekend Holiday Rule
    Yes,                     !- Use Weather File Rain Indicators
    Yes;                     !- Use Weather File Snow Indicators

  RunPeriod,
    RUNPERIOD 3,             !- Name
    7,                       !- Begin Month
    1,                       !- Begin Day of Month
    ,                        !- Begin Year
    7,                       !- End Month
    31,                      !- End Day of Month
    ,                        !- End Year
    Sunday,                  !- Day of Week for Start Day
    No,                      !- Use Weather File Holidays and Special Days
    No,                      !- Use Weather File Daylight Saving Period
    No,                      !- Apply Weekend Holiday Rule
    Yes,                     !- Use Weather File Rain Indicators
    Yes;                     !- Use Weather File Snow Indicators

!-   ===========  ALL OBJECTS IN CLASS: RUNPERIODCONTROL:SPECIALDAYS ===========

  RunPeriodControl:SpecialDays,
    New Years Day,           !- Name
    January 1,               !- Start Date
    1,                       !- Duration {days}
    Holiday;                 !- Special Day Type

  RunPeriodControl:SpecialDays,
    Veterans Day,            !- Name
    November 11,             !- Start Date
    1,                       !- Duration {days}
    Holiday;                 !- Special Day Type

  RunPeriodControl:SpecialDays,
    Christmas,               !- Name
    December 25,             !- Start Date
    1,                       !- Duration {days}
    Holiday;                 !- Special Day Type

  RunPeriodControl:SpecialDays,
    Independence Day,        !- Name
    July 4,                  !- Start Date
    1,                       !- Duration {days}
    Holiday;                 !- Special Day Type

  RunPeriodControl:SpecialDays,
    MLK Day,                 !- Name
    3rd Monday in January,   !- Start Date
    1,                       !- Duration {days}
    Holiday;                 !- Special Day Type

  RunPeriodControl:SpecialDays,
    Presidents Day,          !- Name
    3rd Monday in February,  !- Start Date
    1,                       !- Duration {days}
    Holiday;                 !- Special Day Type

  RunPeriodControl:SpecialDays,
    Memorial Day,            !- Name
    Last Monday in May,      !- Start Date
    1,                       !- Duration {days}
    Holiday;                 !- Special Day Type

  RunPeriodControl:SpecialDays,
    Labor Day,               !- Name
    1st Monday in September, !- Start Date
    1,                       !- Duration {days}
    Holiday;                 !- Special Day Type

  RunPeriodControl:SpecialDays,
    Columbus Day,            !- Name
    2nd Monday in October,   !- Start Date
    1,                       !- Duration {days}
    Holiday;                 !- Special Day Type

  RunPeriodControl:SpecialDays,
    Thanksgiving,            !- Name
    4th Thursday in November,!- Start Date
    1,                       !- Duration {days}
    Holiday;                 !- Special Day Type

!-   ===========  ALL OBJECTS IN CLASS: RUNPERIODCONTROL:DAYLIGHTSAVINGTIME ===========

  RunPeriodControl:DaylightSavingTime,
    2nd Sunday in March,     !- Start Date
    1st Sunday in November;  !- End Date

!-   ===========  ALL OBJECTS IN CLASS: SITE:GROUNDTEMPERATURE:FCFACTORMETHOD ===========

  Site:GroundTemperature:FCfactorMethod,7.1,3.0,-1.0,0.8,-0.2,4.8,6.1,13.7,22.2,22.7,21.7,18.5;

!-   ===========  ALL OBJECTS IN CLASS: SITE:WATERMAINSTEMPERATURE ===========

  Site:WaterMainsTemperature,
    Correlation,             !- Calculation Method
    ,                        !- Temperature Schedule Name
    9.95,                    !- Annual Average Outdoor Air Temperature {C}
    23.7;                    !- Maximum Difference In Monthly Average Outdoor Air Temperatures {deltaC}

!-   ===========  ALL OBJECTS IN CLASS: SCHEDULETYPELIMITS ===========

  ScheduleTypeLimits,
    Any Number;              !- Name

  ScheduleTypeLimits,
    Fraction,                !- Name
    0.0,                     !- Lower Limit Value
    1.0,                     !- Upper Limit Value
    CONTINUOUS;              !- Numeric Type

  ScheduleTypeLimits,
    Temperature,             !- Name
    -60,                     !- Lower Limit Value
    200,                     !- Upper Limit Value
    CONTINUOUS;              !- Numeric Type

  ScheduleTypeLimits,
    On/Off,                  !- Name
    0,                       !- Lower Limit Value
    1,                       !- Upper Limit Value
    DISCRETE;                !- Numeric Type

  ScheduleTypeLimits,
    Control Type,            !- Name
    0,                       !- Lower Limit Value
    4,                       !- Upper Limit Value
    DISCRETE;                !- Numeric Type

  ScheduleTypeLimits,
    Humidity,                !- Name
    10,                      !- Lower Limit Value
    90,                      !- Upper Limit Value
    CONTINUOUS;              !- Numeric Type

  ScheduleTypeLimits,
    Number;                  !- Name

!-   ===========  ALL OBJECTS IN CLASS: SCHEDULE:COMPACT ===========
                             !- Field 4
                             !- Field 12
                             !- Field 14
                             !- Field 16
                             !- Field 18
                             !- Field 27
                             !- Field 29
                             !- Field 31
                             !- Field 33
                             !- Field 35
                             !- Field 50
                             !- Field 52
                             !- Field 54
                             !- Field 56

  Schedule:Compact,
    BLDG_LIGHT_DINING_SCH,   !- Name
    Fraction,                !- Schedule Type Limits Name
    Through: 12/31,          !- Field 1
    For: Weekday,            !- Field 2
    Until: 1:00,0.1398570735,!- Field 3
    Until: 5:00,0.15,        !- Field 5
    Until: 6:00,0.186476098, !- Field 7
    Until: 8:00,0.372952196, !- Field 9
    Until: 10:00,0.559428294,!- Field 11
    Until: 22:00,0.839142441,!- Field 13
    Until: 23:00,0.466190245,!- Field 15
    Until: 24:00,0.279714147,!- Field 17
    For: Saturday,           !- Field 19
    Until: 1:00,0.186476098, !- Field 20
    Until: 6:00,0.15,        !- Field 22
    Until: 8:00,0.279714147, !- Field 24
    Until: 10:00,0.559428294,!- Field 26
    Until: 17:00,0.745904392,!- Field 28
    Until: 22:00,0.839142441,!- Field 30
    Until: 23:00,0.466190245,!- Field 32
    Until: 24:00,0.279714147,!- Field 34
    For: SummerDesignDay,    !- Field 36
    Until: 24:00,1,          !- Field 37
    For: WinterDesignDay,    !- Field 39
    Until: 24:00,0,          !- Field 40
    For: Sunday Holidays AllOtherDays, !- Field 42
    Until: 1:00,0.186476098, !- Field 43
    Until: 6:00,0.15,        !- Field 45
    Until: 8:00,0.279714147, !- Field 47
    Until: 10:00,0.466190245,!- Field 49
    Until: 16:00,0.652666343,!- Field 51
    Until: 22:00,0.559428294,!- Field 53
    Until: 23:00,0.466190245,!- Field 55
    Until: 24:00,0.279714147;!- Field 57

                             !- Field 58

  Schedule:Compact,
    BLDG_LIGHT_KITCHEN_SCH,  !- Name
    Fraction,                !- Schedule Type Limits Name
    Through: 12/31,          !- Field 1
    For: Weekday,            !- Field 2
    Until: 1:00,0.13332,     !- Field 3
    Until: 5:00,0.15,        !- Field 5
    Until: 6:00,0.17776,     !- Field 7
    Until: 8:00,0.35552,     !- Field 9
    Until: 10:00,0.53328,    !- Field 11
    Until: 22:00,0.79992,    !- Field 13
    Until: 23:00,0.4444,     !- Field 15
    Until: 24:00,0.26664,    !- Field 17
    For: Saturday,           !- Field 19
    Until: 1:00,0.17776,     !- Field 20
    Until: 6:00,0.15,        !- Field 22
    Until: 8:00,0.26664,     !- Field 24
    Until: 10:00,0.53328,    !- Field 26
    Until: 17:00,0.71104,    !- Field 28
    Until: 22:00,0.79992,    !- Field 30
    Until: 23:00,0.4444,     !- Field 32
    Until: 24:00,0.26664,    !- Field 34
    For: SummerDesignDay,    !- Field 36
    Until: 24:00,1,          !- Field 37
    For: WinterDesignDay,    !- Field 39
    Until: 24:00,0,          !- Field 40
    For: Sunday Holidays AllOtherDays, !- Field 42
    Until: 1:00,0.17776,     !- Field 43
    Until: 6:00,0.15,        !- Field 45
    Until: 8:00,0.26664,     !- Field 47
    Until: 10:00,0.4444,     !- Field 49
    Until: 16:00,0.62216,    !- Field 51
    Until: 22:00,0.53328,    !- Field 53
    Until: 23:00,0.4444,     !- Field 55
    Until: 24:00,0.26664;    !- Field 57

  Schedule:Compact,
    BLDG_LIGHT_SCH,          !- Name
    Fraction,                !- Schedule Type Limits Name
    Through: 12/31,          !- Field 1
    For: Weekday,            !- Field 2
    Until: 5:00,0.15,        !- Field 3
    Until: 6:00,0.2,         !- Field 5
    Until: 8:00,0.4,         !- Field 7
    Until: 10:00,0.6,        !- Field 9
    Until: 22:00,0.9,        !- Field 11
    Until: 23:00,0.5,        !- Field 13
    Until: 24:00,0.3,        !- Field 15
    For: Saturday,           !- Field 17
    Until: 1:00,0.2,         !- Field 18
    Until: 6:00,0.15,        !- Field 20
    Until: 8:00,0.3,         !- Field 22
    Until: 10:00,0.6,        !- Field 24
    Until: 17:00,0.8,        !- Field 26
    Until: 22:00,0.9,        !- Field 28
    Until: 23:00,0.5,        !- Field 30
    Until: 24:00,0.3,        !- Field 32
    For: SummerDesignDay,    !- Field 34
    Until: 24:00,1,          !- Field 35
    For: WinterDesignDay,    !- Field 37
    Until: 24:00,0,          !- Field 38
    For: Sunday Holidays AllOtherDays, !- Field 40
    Until: 1:00,0.2,         !- Field 41
    Until: 6:00,0.15,        !- Field 43
    Until: 8:00,0.3,         !- Field 45
    Until: 10:00,0.5,        !- Field 47
    Until: 16:00,0.7,        !- Field 49
    Until: 22:00,0.6,        !- Field 51
    Until: 23:00,0.5,        !- Field 53
    Until: 24:00,0.3;        !- Field 55

                             !- Field 4
                             !- Field 8
                             !- Field 12
                             !- Field 14
                             !- Field 16
                             !- Field 18
                             !- Field 20
                             !- Field 22
                             !- Field 24
                             !- Field 26
                             !- Field 28
                             !- Field 30
                             !- Field 32
                             !- Field 34
                             !- Field 36
                             !- Field 38
                             !- Field 40
                             !- Field 42
                             !- Field 46
                             !- Field 48
                             !- Field 50
                             !- Field 53
                             !- Field 57
                             !- Field 61
                             !- Field 65
                             !- Field 67
                             !- Field 69
                             !- Field 71
                             !- Field 73
                             !- Field 75
                             !- Field 77
                             !- Field 79
                             !- Field 81
                             !- Field 83
                             !- Field 85
                             !- Field 87
                             !- Field 89
                             !- Field 91
                             !- Field 95
                             !- Field 97
                             !- Field 99
                             !- Field 108
                             !- Field 112
                             !- Field 116
                             !- Field 120
                             !- Field 122
                             !- Field 124
                             !- Field 126
                             !- Field 128
                             !- Field 130
                             !- Field 132
                             !- Field 134
                             !- Field 136
                             !- Field 138
                             !- Field 140
                             !- Field 142
                             !- Field 144
                             !- Field 146
                             !- Field 150
                             !- A154

  Schedule:Compact,
    BLDG_EQUIP_SCH,          !- Name
    Fraction,                !- Schedule Type Limits Name
    Through: 12/31,          !- Field 1
    For: Weekdays,           !- Field 2
    Until: 01:00,0.0299674785, !- Field 3
    Until: 02:00,0.01990145, !- Field 5
    Until: 03:00,0.029852175,!- Field 7
    Until: 04:00,0.01990145, !- Field 9
    Until: 05:00,0.049753625,!- Field 11
    Until: 06:00,0.119869914,!- Field 13
    Until: 07:00,0.1298590735, !- Field 15
    Until: 08:00,0.1498373925, !- Field 17
    Until: 09:00,0.179804871,!- Field 19
    Until: 10:00,0.2097723495, !- Field 21
    Until: 11:00,0.259718147,!- Field 23
    Until: 12:00,0.2896856255, !- Field 25
    Until: 13:00,0.2697073065, !- Field 27
    Until: 14:00,0.2497289875, !- Field 29
    Until: 15:00,0.2297506685, !- Field 31
    Until: 16:00,0.2297506685, !- Field 33
    Until: 17:00,0.259718147,!- Field 35
    Until: 18:00,0.259718147,!- Field 37
    Until: 19:00,0.239739828,!- Field 39
    Until: 20:00,0.219761509,!- Field 41
    Until: 21:00,0.19978319, !- Field 43
    Until: 22:00,0.179804871,!- Field 45
    Until: 23:00,0.0899024355, !- Field 47
    Until: 24:00,0.0299674785, !- Field 49
    For: Saturday,           !- Field 51
    Until: 01:00,0.0299674785, !- Field 52
    Until: 02:00,0.01990145, !- Field 54
    Until: 03:00,0.029852175,!- Field 56
    Until: 04:00,0.01990145, !- Field 58
    Until: 05:00,0.049753625,!- Field 60
    Until: 06:00,0.1194087,  !- Field 62
    Until: 07:00,0.1298590735, !- Field 64
    Until: 08:00,0.1498373925, !- Field 66
    Until: 09:00,0.179804871,!- Field 68
    Until: 10:00,0.2097723495, !- Field 70
    Until: 11:00,0.259718147,!- Field 72
    Until: 12:00,0.2896856255, !- Field 74
    Until: 13:00,0.2697073065, !- Field 76
    Until: 14:00,0.2497289875, !- Field 78
    Until: 15:00,0.2297506685, !- Field 80
    Until: 16:00,0.2297506685, !- Field 82
    Until: 17:00,0.259718147,!- Field 84
    Until: 18:00,0.259718147,!- Field 86
    Until: 19:00,0.239739828,!- Field 88
    Until: 20:00,0.219761509,!- Field 90
    Until: 21:00,0.19978319, !- Field 92
    Until: 22:00,0.179804871,!- Field 94
    Until: 23:00,0.0899024355, !- Field 96
    Until: 24:00,0.0299674785, !- Field 98
    For: SummerDesignDay,    !- Field 100
    Until: 24:00,0.29,       !- Field 101
    For: WinterDesignDay,    !- Field 103
    Until: 24:00,0.0,        !- Field 104
    For: Sunday Holidays AllOtherDays, !- Field 106
    Until: 01:00,0.0299674785, !- Field 107
    Until: 02:00,0.01990145, !- Field 109
    Until: 03:00,0.029852175,!- Field 111
    Until: 04:00,0.01990145, !- Field 113
    Until: 05:00,0.049753625,!- Field 115
    Until: 06:00,0.1194087,  !- Field 117
    Until: 07:00,0.1298590735, !- Field 119
    Until: 08:00,0.1498373925, !- Field 121
    Until: 09:00,0.179804871,!- Field 123
    Until: 10:00,0.2097723495, !- Field 125
    Until: 11:00,0.259718147,!- Field 127
    Until: 12:00,0.2896856255, !- Field 129
    Until: 13:00,0.2697073065, !- Field 131
    Until: 14:00,0.2497289875, !- Field 133
    Until: 15:00,0.2297506685, !- Field 135
    Until: 16:00,0.2297506685, !- Field 137
    Until: 17:00,0.259718147,!- Field 139
    Until: 18:00,0.259718147,!- Field 141
    Until: 19:00,0.239739828,!- Field 143
    Until: 20:00,0.219761509,!- Field 145
    Until: 21:00,0.19978319, !- Field 147
    Until: 22:00,0.179804871,!- Field 149
    Until: 23:00,0.0899024355, !- <none>
    Until: 24:00,0.0299674785; !- <none>

                             !- A156

  Schedule:Compact,
    FF_GAS_EQUIP_SCH,        !- Name
    Fraction,                !- Schedule Type Limits Name
    Through: 12/31,          !- Field 1
    For: Weekdays Saturday,  !- Field 2
    Until: 01:00,0.03,       !- Field 3
    Until: 02:00,0.02,       !- Field 5
    Until: 03:00,0.03,       !- Field 7
    Until: 04:00,0.02,       !- Field 9
    Until: 05:00,0.05,       !- Field 11
    Until: 06:00,0.12,       !- Field 13
    Until: 07:00,0.13,       !- Field 15
    Until: 08:00,0.15,       !- Field 17
    Until: 09:00,0.18,       !- Field 19
    Until: 10:00,0.21,       !- Field 21
    Until: 11:00,0.26,       !- Field 23
    Until: 12:00,0.29,       !- Field 25
    Until: 13:00,0.27,       !- Field 27
    Until: 14:00,0.25,       !- Field 29
    Until: 15:00,0.23,       !- Field 31
    Until: 16:00,0.23,       !- Field 33
    Until: 17:00,0.26,       !- Field 35
    Until: 18:00,0.26,       !- Field 37
    Until: 19:00,0.24,       !- Field 39
    Until: 20:00,0.22,       !- Field 41
    Until: 21:00,0.20,       !- Field 43
    Until: 22:00,0.18,       !- Field 45
    Until: 23:00,0.09,       !- Field 47
    Until: 24:00,0.03,       !- Field 49
    For: SummerDesignDay,    !- Field 51
    Until: 24:00,0.29,       !- Field 52
    For: WinterDesignDay,    !- Field 54
    Until: 24:00,0.0,        !- Field 55
    For: Sunday Holidays AllOtherDays, !- Field 57
    Until: 01:00,0.03,       !- Field 58
    Until: 02:00,0.02,       !- Field 60
    Until: 03:00,0.03,       !- Field 62
    Until: 04:00,0.02,       !- Field 64
    Until: 05:00,0.05,       !- Field 66
    Until: 06:00,0.12,       !- Field 68
    Until: 07:00,0.13,       !- Field 70
    Until: 08:00,0.15,       !- Field 72
    Until: 09:00,0.18,       !- Field 74
    Until: 10:00,0.21,       !- Field 76
    Until: 11:00,0.26,       !- Field 78
    Until: 12:00,0.29,       !- Field 80
    Until: 13:00,0.27,       !- Field 82
    Until: 14:00,0.25,       !- Field 84
    Until: 15:00,0.23,       !- Field 86
    Until: 16:00,0.23,       !- Field 88
    Until: 17:00,0.26,       !- Field 90
    Until: 18:00,0.26,       !- Field 92
    Until: 19:00,0.24,       !- Field 94
    Until: 20:00,0.22,       !- Field 96
    Until: 21:00,0.20,       !- Field 98
    Until: 22:00,0.18,       !- Field 100
    Until: 23:00,0.09,       !- Field 102
    Until: 24:00,0.03;       !- Field 104

  Schedule:Compact,
    BLDG_OCC_SCH,            !- Name
    Fraction,                !- Schedule Type Limits Name
    Through: 12/31,          !- Field 1
    For: Weekdays,           !- Field 2
    Until: 01:00,0.05,       !- Field 3
    Until: 05:00,0.0,        !- Field 5
    Until: 06:00,0.05,       !- Field 7
    Until: 07:00,0.1,        !- Field 9
    Until: 10:00,0.4,        !- Field 11
    Until: 11:00,0.2,        !- Field 13
    Until: 12:00,0.5,        !- Field 15
    Until: 13:00,0.8,        !- Field 17
    Until: 14:00,0.7,        !- Field 19
    Until: 15:00,0.4,        !- Field 21
    Until: 16:00,0.2,        !- Field 23
    Until: 17:00,0.25,       !- Field 25
    Until: 18:00,0.5,        !- Field 27
    Until: 21:00,0.8,        !- Field 29
    Until: 22:00,0.5,        !- Field 31
    Until: 23:00,0.35,       !- Field 33
    Until: 24:00,0.2,        !- Field 35
    For: SummerDesignDay,    !- Field 37
    Until: 24:00,1.0,        !- Field 38
    For: WinterDesignDay,    !- Field 40
    Until: 24:00,0.0,        !- Field 41
    For: Saturday,           !- Field 43
    Until: 01:00,0.05,       !- Field 44
    Until: 06:00,0.0,        !- Field 46
    Until: 07:00,0.05,       !- Field 48
    Until: 09:00,0.5,        !- Field 50
    Until: 10:00,0.4,        !- Field 52
    Until: 11:00,0.2,        !- Field 54
    Until: 12:00,0.45,       !- Field 56
    Until: 14:00,0.5,        !- Field 58
    Until: 15:00,0.35,       !- Field 60
    Until: 18:00,0.3,        !- Field 62
    Until: 19:00,0.7,        !- Field 64
    Until: 20:00,0.9,        !- Field 66
    Until: 21:00,0.7,        !- Field 68
    Until: 22:00,0.65,       !- Field 70
    Until: 23:00,0.55,       !- Field 72
    Until: 24:00,0.35,       !- Field 74
    For: Sunday Holidays AllOtherDays, !- Field 76
    Until: 01:00,0.05,       !- Field 77
    Until: 06:00,0.0,        !- Field 79
    Until: 07:00,0.05,       !- Field 81
    Until: 09:00,0.5,        !- Field 83
    Until: 11:00,0.2,        !- Field 85
    Until: 12:00,0.3,        !- Field 87
    Until: 14:00,0.5,        !- Field 89
    Until: 15:00,0.3,        !- Field 91
    Until: 16:00,0.2,        !- Field 93
    Until: 17:00,0.25,       !- Field 95
    Until: 18:00,0.35,       !- Field 97
    Until: 19:00,0.55,       !- Field 99
    Until: 20:00,0.65,       !- Field 101
    Until: 21:00,0.7,        !- Field 103
    Until: 22:00,0.35,       !- Field 105
    Until: 24:00,0.2;        !- Field 107

  Schedule:Compact,
    INFIL_SCH_PNNL,          !- Name
    fraction,                !- Schedule Type Limits Name
    Through: 12/31,          !- Field 1
    For: Weekdays SummerDesignDay, !- Field 2
    Until: 01:00,0.25,       !- Field 3
    Until: 05:00,1.0,        !- Field 5
    Until: 24:00,0.25,       !- Field 7
    For: Saturday WinterDesignDay, !- Field 9
    Until: 01:00,0.25,       !- Field 10
    Until: 05:00,1.0,        !- Field 12
    Until: 24:00,0.25,       !- Field 14
    For: Sunday Holidays AllOtherDays, !- Field 16
    Until: 01:00,0.25,       !- Field 17
    Until: 05:00,1.0,        !- Field 19
    Until: 24:00,0.25;       !- Field 21

  Schedule:Compact,
    DOOR_INFIL_SCH,          !- Name
    fraction,                !- Schedule Type Limits Name
    Through: 12/31,          !- Field 1
    For: Weekdays,           !- Field 2
    Until: 06:00,0.0,        !- Field 3
    Until: 07:00,0.144,      !- Field 5
    Until: 10:00,0.462,      !- Field 7
    Until: 11:00,0.258,      !- Field 9
    Until: 12:00,0.558,      !- Field 11
    Until: 13:00,0.829,      !- Field 13
    Until: 14:00,0.74,       !- Field 15
    Until: 15:00,0.462,      !- Field 17
    Until: 16:00,0.258,      !- Field 19
    Until: 17:00,0.363,      !- Field 21
    Until: 18:00,0.558,      !- Field 23
    Until: 21:00,0.829,      !- Field 25
    Until: 22:00,0.558,      !- Field 27
    Until: 23:00,0.363,      !- Field 29
    Until: 24:00,0.258,      !- Field 31
    For: SummerDesignDay,    !- Field 33
    Until: 24:00,1.0,        !- Field 34