!-Generator IDFEditor 1.51
!-Option SortedOrder UseSpecialFormat
!-NOTE: All comments with '!-' are ignored by the IDFEditor and are generated automatically.
!-      Use '!' comments if they need to be retained when using the IDFEditor.
!-   ===========  ALL OBJECTS IN CLASS: VERSION ===========

  Version,24.1;

!-   ===========  ALL OBJECTS IN CLASS: SIMULATIONCONTROL ===========

  SimulationControl,
    Yes,                     !- Do Zone Sizing Calculation
    Yes,                     !- Do System Sizing Calculation
    Yes,                     !- Do Plant Sizing Calculation
    No,                      !- Run Simulation for Sizing Periods
    YES,                     !- Run Simulation for Weather File Run Periods
    No,                      !- Do HVAC Sizing Simulation for Sizing Periods
    1;                       !- Maximum Number of HVAC Sizing Simulation Passes

!-   ===========  ALL OBJECTS IN CLASS: BUILDING ===========

  Building,
    Hospital,                !- Name
    -90,                     !- North Axis {deg}
    City,                    !- Terrain
    0.0400,                  !- Loads Convergence Tolerance Value {W}
    0.2000,                  !- Temperature Convergence Tolerance Value {deltaC}
    MinimalShadowing,        !- Solar Distribution
    15,                      !- Maximum Number of Warmup Days
    6;                       !- Minimum Number of Warmup Days

!-   ===========  ALL OBJECTS IN CLASS: SHADOWCALCULATION ===========

  ShadowCalculation,
    PolygonClipping,         !- Shading Calculation Method
    Periodic,                !- Shading Calculation Update Frequency Method
    30;                      !- Shading Calculation Update Frequency

!-   ===========  ALL OBJECTS IN CLASS: SURFACECONVECTIONALGORITHM:INSIDE ===========

  SurfaceConvectionAlgorithm:Inside,TARP;

!-   ===========  ALL OBJECTS IN CLASS: SURFACECONVECTIONALGORITHM:OUTSIDE ===========

  SurfaceConvectionAlgorithm:Outside,TARP;

!-   ===========  ALL OBJECTS IN CLASS: HEATBALANCEALGORITHM ===========

  HeatBalanceAlgorithm,ConductionTransferFunction;

!-   ===========  ALL OBJECTS IN CLASS: TIMESTEP ===========

  Timestep,4;

!-   ===========  ALL OBJECTS IN CLASS: CONVERGENCELIMITS ===========

  ConvergenceLimits,
    15,                      !- Minimum System Timestep {minutes}
    5;                       !- Maximum HVAC Iterations

!-   ===========  ALL OBJECTS IN CLASS: SITE:LOCATION ===========

  Site:Location,
    Denver-Aurora-Buckley.AFB_CO_USA WMO=724695,  !- Name
    39.72,                   !- Latitude {deg}
    -104.75,                 !- Longitude {deg}
    -7.00,                   !- Time Zone {hr}
    1726.00;                 !- Elevation {m}

!-   ===========  ALL OBJECTS IN CLASS: SIZINGPERIOD:DESIGNDAY ===========

  SizingPeriod:DesignDay,
    Denver-Aurora-Buckley.AFB_CO_USA Ann Htg 99.6% Condns DB,  !- Name
    12,                      !- Month
    21,                      !- Day of Month
    WinterDesignDay,         !- Day Type
    -17.9,                   !- Maximum Dry-Bulb Temperature {C}
    0.0,                     !- Daily Dry-Bulb Temperature Range {deltaC}
    DefaultMultipliers,      !- Dry-Bulb Temperature Range Modifier Type
    ,                        !- Dry-Bulb Temperature Range Modifier Day Schedule Name
    Wetbulb,                 !- Humidity Condition Type
    -17.9,                   !- Wetbulb or DewPoint at Maximum Dry-Bulb {C}
    ,                        !- Humidity Condition Day Schedule Name
    ,                        !- Humidity Ratio at Maximum Dry-Bulb {kgWater/kgDryAir}
    ,                        !- Enthalpy at Maximum Dry-Bulb {J/kg}
    ,                        !- Daily Wet-Bulb Temperature Range {deltaC}
    82237.,                  !- Barometric Pressure {Pa}
    2.5,                     !- Wind Speed {m/s}
    180,                     !- Wind Direction {deg}
    No,                      !- Rain Indicator
    No,                      !- Snow Indicator
    No,                      !- Daylight Saving Time Indicator
    ASHRAEClearSky,          !- Solar Model Indicator
    ,                        !- Beam Solar Day Schedule Name
    ,                        !- Diffuse Solar Day Schedule Name
    ,                        !- ASHRAE Clear Sky Optical Depth for Beam Irradiance (taub) {dimensionless}
    ,                        !- ASHRAE Clear Sky Optical Depth for Diffuse Irradiance (taud) {dimensionless}
    0.00;                    !- Sky Clearness

  SizingPeriod:DesignDay,
    Denver-Aurora-Buckley.AFB_CO_USA Ann Clg .4% Condns DB=>MWB,  !- Name
    7,                       !- Month
    21,                      !- Day of Month
    SummerDesignDay,         !- Day Type
    33.9,                    !- Maximum Dry-Bulb Temperature {C}
    14.8,                    !- Daily Dry-Bulb Temperature Range {deltaC}
    DefaultMultipliers,      !- Dry-Bulb Temperature Range Modifier Type
    ,                        !- Dry-Bulb Temperature Range Modifier Day Schedule Name
    Wetbulb,                 !- Humidity Condition Type
    15,                      !- Wetbulb or DewPoint at Maximum Dry-Bulb {C}
    ,                        !- Humidity Condition Day Schedule Name
    ,                        !- Humidity Ratio at Maximum Dry-Bulb {kgWater/kgDryAir}
    ,                        !- Enthalpy at Maximum Dry-Bulb {J/kg}
    ,                        !- Daily Wet-Bulb Temperature Range {deltaC}
    82237.,                  !- Barometric Pressure {Pa}
    3.6,                     !- Wind Speed {m/s}
    30,                      !- Wind Direction {deg}
    No,                      !- Rain Indicator
    No,                      !- Snow Indicator
    No,                      !- Daylight Saving Time Indicator
    ASHRAETau,               !- Solar Model Indicator
    ,                        !- Beam Solar Day Schedule Name
    ,                        !- Diffuse Solar Day Schedule Name
    0.423,                   !- ASHRAE Clear Sky Optical Depth for Beam Irradiance (taub) {dimensionless}
    2.020;                   !- ASHRAE Clear Sky Optical Depth for Diffuse Irradiance (taud) {dimensionless}

!-   ===========  ALL OBJECTS IN CLASS: RUNPERIOD ===========

  RunPeriod,
    RUNPERIOD 1,             !- Name
    1,                       !- Begin Month
    1,                       !- Begin Day of Month
    ,                        !- Begin Year
    1,                       !- End Month
    31,                      !- End Day of Month
    ,                        !- End Year
    Sunday,                  !- Day of Week for Start Day
    No,                      !- Use Weather File Holidays and Special Days
    No,                      !- Use Weather File Daylight Saving Period
    No,                      !- Apply Weekend Holiday Rule
    Yes,                     !- Use Weather File Rain Indicators
    Yes;                     !- Use Weather File Snow Indicators

  RunPeriod,
    RUNPERIOD 2,             !- Name
    4,                       !- Begin Month
    1,                       !- Begin Day of Month
    ,                        !- Begin Year
    4,                       !- End Month
    30,                      !- End Day of Month
    ,                        !- End Year
    Sunday,                  !- Day of Week for Start Day
    No,                      !- Use Weather File Holidays and Special Days
    No,                      !- Use Weather File Daylight Saving Period
    No,                      !- Apply Weekend Holiday Rule
    Yes,                     !- Use Weather File Rain Indicators
    Yes;                     !- Use Weather File Snow Indicators

  RunPeriod,
    RUNPERIOD 3,             !- Name
    7,                       !- Begin Month
    1,                       !- Begin Day of Month
    ,                        !- Begin Year
    7,                       !- End Month
    31,                      !- End Day of Month
    ,                        !- End Year
    Sunday,                  !- Day of Week for Start Day
    No,                      !- Use Weather File Holidays and Special Days
    No,                      !- Use Weather File Daylight Saving Period
    No,                      !- Apply Weekend Holiday Rule
    Yes,                     !- Use Weather File Rain Indicators
    Yes;                     !- Use Weather File Snow Indicators

!-   ===========  ALL OBJECTS IN CLASS: RUNPERIODCONTROL:SPECIALDAYS ===========

  RunPeriodControl:SpecialDays,
    New Years Day,           !- Name
    January 1,               !- Start Date
    1,                       !- Duration {days}
    Holiday;                 !- Special Day Type

  RunPeriodControl:SpecialDays,
    Veterans Day,            !- Name
    November 11,             !- Start Date
    1,                       !- Duration {days}
    Holiday;                 !- Special Day Type

  RunPeriodControl:SpecialDays,
    Christmas,               !- Name
    December 25,             !- Start Date
    1,                       !- Duration {days}
    Holiday;                 !- Special Day Type

  RunPeriodControl:SpecialDays,
    Independence Day,        !- Name
    July 4,                  !- Start Date
    1,                       !- Duration {days}
    Holiday;                 !- Special Day Type

  RunPeriodControl:SpecialDays,
    MLK Day,                 !- Name
    3rd Monday in January,   !- Start Date
    1,                       !- Duration {days}
    Holiday;                 !- Special Day Type

  RunPeriodControl:SpecialDays,
    Presidents Day,          !- Name
    3rd Monday in February,  !- Start Date
    1,                       !- Duration {days}
    Holiday;                 !- Special Day Type

  RunPeriodControl:SpecialDays,
    Memorial Day,            !- Name
    Last Monday in May,      !- Start Date
    1,                       !- Duration {days}
    Holiday;                 !- Special Day Type

  RunPeriodControl:SpecialDays,
    Labor Day,               !- Name
    1st Monday in September, !- Start Date
    1,                       !- Duration {days}
    Holiday;                 !- Special Day Type

  RunPeriodControl:SpecialDays,
    Columbus Day,            !- Name
    2nd Monday in October,   !- Start Date
    1,                       !- Duration {days}
    Holiday;                 !- Special Day Type

  RunPeriodControl:SpecialDays,
    Thanksgiving,            !- Name
    4th Thursday in November,!- Start Date
    1,                       !- Duration {days}
    Holiday;                 !- Special Day Type

!-   ===========  ALL OBJECTS IN CLASS: RUNPERIODCONTROL:DAYLIGHTSAVINGTIME ===========

  RunPeriodControl:DaylightSavingTime,
    2nd Sunday in March,     !- Start Date
    1st Sunday in November;  !- End Date

!-   ===========  ALL OBJECTS IN CLASS: SITE:GROUNDTEMPERATURE:FCFACTORMETHOD ===========

  Site:GroundTemperature:FCfactorMethod,7.1,3.0,-1.0,0.8,-0.2,4.8,6.1,13.7,22.2,22.7,21.7,18.5;

!-   ===========  ALL OBJECTS IN CLASS: SITE:WATERMAINSTEMPERATURE ===========

  Site:WaterMainsTemperature,
    Correlation,             !- Calculation Method
    ,                        !- Temperature Schedule Name
    9.95,                    !- Annual Average Outdoor Air Temperature {C}
    23.7;                    !- Maximum Difference In Monthly Average Outdoor Air Temperatures {deltaC}

!-   ===========  ALL OBJECTS IN CLASS: SCHEDULETYPELIMITS ===========

  ScheduleTypeLimits,
    Any Number;              !- Name

  ScheduleTypeLimits,
    Fraction,                !- Name
    0.0,                     !- Lower Limit Value
    1.0,                     !- Upper Limit Value
    Continuous;              !- Numeric Type

  ScheduleTypeLimits,
    Temperature,             !- Name
    -60,                     !- Lower Limit Value
    200,                     !- Upper Limit Value
    Continuous;              !- Numeric Type

  ScheduleTypeLimits,
    On/Off,                  !- Name
    0,                       !- Lower Limit Value
    1,                       !- Upper Limit Value
    Discrete;                !- Numeric Type

  ScheduleTypeLimits,
    Control Type,            !- Name
    0,                       !- Lower Limit Value
    4,                       !- Upper Limit Value
    Discrete;                !- Numeric Type

  ScheduleTypeLimits,
    Humidity,                !- Name
    10,                      !- Lower Limit Value
    90,                      !- Upper Limit Value
    Continuous;              !- Numeric Type

  ScheduleTypeLimits,
    Number;                  !- Name

!-   ===========  ALL OBJECTS IN CLASS: SCHEDULE:COMPACT ===========

  Schedule:Compact,
    Patrms_ExtraElecHeatC_Sch,  !- Name
    On/Off,                  !- Schedule Type Limits Name
    Through: 12/31,          !- Field 1
    For: AllDays,            !- Field 2
    Until: 24:00,1;          !- Field 3

  Schedule:Compact,
    Patrms_ExtraWaterHeatC_Sch,  !- Name
    On/Off,                  !- Schedule Type Limits Name
    Through: 12/31,          !- Field 1
    For: AllDays,            !- Field 2
    Until: 24:00,1;          !- Field 3

  Schedule:Compact,
    ER_ExtraElecHeatC_Sch,   !- Name
    On/Off,                  !- Schedule Type Limits Name
    Through: 12/31,          !- Field 1
    For: AllDays,            !- Field 2
    Until: 24:00,1;          !- Field 3

  Schedule:Compact,
    ER_ExtraWaterHeatC_Sch,  !- Name
    On/Off,                  !- Schedule Type Limits Name
    Through: 12/31,          !- Field 1
    For: AllDays,            !- Field 2
    Until: 24:00,1;          !- Field 3

  Schedule:Compact,
    OR_ExtraElecHeatC_Sch,   !- Name
    On/Off,                  !- Schedule Type Limits Name
    Through: 12/31,          !- Field 1
    For: AllDays,            !- Field 2
    Until: 24:00,1;          !- Field 3

  Schedule:Compact,
    OR_ExtraWaterHeatC_Sch,  !- Name
    On/Off,                  !- Schedule Type Limits Name
    Through: 12/31,          !- Field 1
    For: AllDays,            !- Field 2
    Until: 24:00,1;          !- Field 3

  Schedule:Compact,
    ICU_ExtraElecHeatC_Sch,  !- Name
    On/Off,                  !- Schedule Type Limits Name
    Through: 12/31,          !- Field 1
    For: AllDays,            !- Field 2
    Until: 24:00,1;          !- Field 3

  Schedule:Compact,
    ICU_ExtraWaterHeatC_Sch, !- Name
    On/Off,                  !- Schedule Type Limits Name
    Through: 12/31,          !- Field 1
    For: AllDays,            !- Field 2
    Until: 24:00,1;          !- Field 3

  Schedule:Compact,
    Labs_ExtraElecHeatC_Sch, !- Name
    On/Off,                  !- Schedule Type Limits Name
    Through: 12/31,          !- Field 1
    For: AllDays,            !- Field 2
    Until: 24:00,1;          !- Field 3

  Schedule:Compact,
    Labs_ExtraWaterHeatC_Sch,!- Name
    On/Off,                  !- Schedule Type Limits Name
    Through: 12/31,          !- Field 1
    For: AllDays,            !- Field 2
    Until: 24:00,1;          !- Field 3

  Schedule:Compact,
    Hours_of_operation,      !- Name
    on/off,                  !- Schedule Type Limits Name
    Through: 12/31,          !- Field 1
    For: AllDays,            !- Field 2
    Until: 24:00,1.0;        !- Field 3

  Schedule:Compact,
    Exterior_Lgt_ALWAYS_ON,  !- Name
    Fraction,                !- Schedule Type Limits Name
    Through: 12/31,          !- Field 1
    For: AllDays,            !- Field 2
    Until: 24:00,1;          !- Field 3

  Schedule:Compact,
    ALWAYS_ON,               !- Name
    Fraction,                !- Schedule Type Limits Name
    Through: 12/31,          !- Field 1
    For: AllDays,            !- Field 2
    Until: 24:00,1.0;        !- Field 3

  Schedule:Compact,
    ALWAYS_OFF,              !- Name
    Fraction,                !- Schedule Type Limits Name
    Through: 12/31,          !- Field 1
    For: AllDays,            !- Field 2
    Until: 24:00,0.0;        !- Field 3

  Schedule:Compact,
    HVACOperationSchd,       !- Name
    on/off,                  !- Schedule Type Limits Name
    Through: 12/31,          !- Field 1
    For: AllDays,            !- Field 2
    Until: 24:00,1.0;        !- Field 3

  Schedule:Compact,
    BLDG_LIGHT_CORRIDOR_SCH, !- Name
    Fraction,                !- Schedule Type Limits Name
    Through: 12/31,          !- Field 1
    For: Weekdays,           !- Field 2
    Until: 8:00,0.4806,      !- Field 3
    Until: 16:00,0.86508,    !- Field 5
    Until: 24:00,0.4806,     !- Field 7
    For: SummerDesignDay,    !- Field 9
    Until: 24:00,1,          !- Field 10
    For: WinterDesignDay,    !- Field 12
    Until: 24:00,0,          !- Field 13
    For: Saturday,           !- Field 15
    Until: 8:00,0.4806,      !- Field 16
    Until: 18:00,0.76896,    !- Field 18
    Until: 24:00,0.4806,     !- Field 20
    For: Sunday Holidays AllOtherDays, !- Field 22
    Until: 8:00,0.4806,      !- Field 23
    Until: 16:00,0.67284,    !- Field 25
    Until: 24:00,0.4806;     !- Field 27

  Schedule:Compact,
    BLDG_LIGHT_EXAM_SCH,     !- Name
    Fraction,                !- Schedule Type Limits Name
    Through: 12/31,          !- Field 1
    For: Weekdays,           !- Field 2
    Until: 8:00,0.39,        !- Field 3
    Until: 16:00,0.702,      !- Field 5
    Until: 24:00,0.39,       !- Field 7
    For: SummerDesignDay,    !- Field 9
    Until: 24:00,1,          !- Field 10
    For: WinterDesignDay,    !- Field 12
    Until: 24:00,0,          !- Field 13
    For: Saturday,           !- Field 15
    Until: 8:00,0.39,        !- Field 16
    Until: 18:00,0.624,      !- Field 18
    Until: 24:00,0.39,       !- Field 20
    For: Sunday Holidays AllOtherDays, !- Field 22
    Until: 8:00,0.39,        !- Field 23
    Until: 16:00,0.546,      !- Field 25
    Until: 24:00,0.39;       !- Field 27

  Schedule:Compact,
    BLDG_LIGHT_EXTD_SCH,     !- Name
    Fraction,                !- Schedule Type Limits Name
    Through: 12/31,          !- Field 1
    For: Weekdays,           !- Field 2
    Until: 8:00,0.5,         !- Field 3
    Until: 16:00,0.9,        !- Field 5
    Until: 24:00,0.5,        !- Field 7
    For: SummerDesignDay,    !- Field 9
    Until: 24:00,1,          !- Field 10
    For: WinterDesignDay,    !- Field 12
    Until: 24:00,0,          !- Field 13
    For: Saturday,           !- Field 15
    Until: 8:00,0.5,         !- Field 16
    Until: 18:00,0.8,        !- Field 18
    Until: 24:00,0.5,        !- Field 20
    For: Sunday Holidays AllOtherDays, !- Field 22
    Until: 8:00,0.5,         !- Field 23
    Until: 16:00,0.7,        !- Field 25
    Until: 24:00,0.5;        !- Field 27

  Schedule:Compact,
    BLDG_LIGHT_LOBBYFLR1_SCH,!- Name
    Fraction,                !- Schedule Type Limits Name
    Through: 12/31,          !- Field 1
    For: Weekdays,           !- Field 2
    Until: 7:00,0.1,         !- Field 3
    Until: 8:00,0.4775,      !- Field 5
    Until: 16:00,0.8595,     !- Field 7
    Until: 22:00,0.2865,     !- Field 9
    Until: 23:00,0.3,        !- Field 11
    Until: 24:00,0.1,        !- Field 13
    For: SummerDesignDay,    !- Field 15
    Until: 24:00,1,          !- Field 16
    For: WinterDesignDay,    !- Field 18
    Until: 24:00,0,          !- Field 19
    For: Saturday,           !- Field 21
    Until: 7:00,0.1,         !- Field 22
    Until: 8:00,0.191,       !- Field 24
    Until: 18:00,0.382,      !- Field 26
    Until: 19:00,0.0955,     !- Field 28
    Until: 24:00,0.1,        !- Field 30
    For: Sunday Holidays AllOtherDays, !- Field 32
    Until: 8:00,0.05,        !- Field 33
    Until: 16:00,0.0955,     !- Field 35
    Until: 24:00,0.05;       !- Field 37

  Schedule:Compact,
    BLDG_LIGHT_LOBBYFLR5_SCH,!- Name
    Fraction,                !- Schedule Type Limits Name
    Through: 12/31,          !- Field 1
    For: Weekdays,           !- Field 2
    Until: 7:00,0.1,         !- Field 3
    Until: 8:00,0.485,       !- Field 5
    Until: 16:00,0.873,      !- Field 7
    Until: 22:00,0.291,      !- Field 9
    Until: 23:00,0.3,        !- Field 11
    Until: 24:00,0.1,        !- Field 13
    For: SummerDesignDay,    !- Field 15
    Until: 24:00,1,          !- Field 16
    For: WinterDesignDay,    !- Field 18
    Until: 24:00,0,          !- Field 19
    For: Saturday,           !- Field 21
    Until: 7:00,0.1,         !- Field 22
    Until: 8:00,0.194,       !- Field 24
    Until: 18:00,0.388,      !- Field 26
    Until: 19:00,0.097,      !- Field 28
    Until: 24:00,0.1,        !- Field 30
    For: Sunday Holidays AllOtherDays, !- Field 32
    Until: 8:00,0.05,        !- Field 33
    Until: 16:00,0.097,      !- Field 35
    Until: 24:00,0.05;       !- Field 37

  Schedule:Compact,
    BLDG_LIGHT_NURSEFLR1_SCH,!- Name
    Fraction,                !- Schedule Type Limits Name
    Through: 12/31,          !- Field 1
    For: Weekdays,           !- Field 2
    Until: 8:00,0.49,        !- Field 3
    Until: 16:00,0.882,      !- Field 5
    Until: 24:00,0.49,       !- Field 7
    For: SummerDesignDay,    !- Field 9
    Until: 24:00,1,          !- Field 10
    For: WinterDesignDay,    !- Field 12
    Until: 24:00,0,          !- Field 13
    For: Saturday,           !- Field 15
    Until: 8:00,0.49,        !- Field 16
    Until: 18:00,0.784,      !- Field 18
    Until: 24:00,0.49,       !- Field 20
    For: Sunday Holidays AllOtherDays, !- Field 22
    Until: 8:00,0.49,        !- Field 23
    Until: 16:00,0.686,      !- Field 25
    Until: 24:00,0.49;       !- Field 27

  Schedule:Compact,
    BLDG_LIGHT_NURSEFLR234_SCH,  !- Name
    Fraction,                !- Schedule Type Limits Name
    Through: 12/31,          !- Field 1
    For: Weekdays,           !- Field 2
    Until: 8:00,0.485,       !- Field 3
    Until: 16:00,0.873,      !- Field 5
    Until: 24:00,0.485,      !- Field 7
    For: SummerDesignDay,    !- Field 9
    Until: 24:00,1,          !- Field 10
    For: WinterDesignDay,    !- Field 12
    Until: 24:00,0,          !- Field 13
    For: Saturday,           !- Field 15
    Until: 8:00,0.485,       !- Field 16
    Until: 18:00,0.776,      !- Field 18
    Until: 24:00,0.485,      !- Field 20
    For: Sunday Holidays AllOtherDays, !- Field 22
    Until: 8:00,0.485,       !- Field 23
    Until: 16:00,0.679,      !- Field 25
    Until: 24:00,0.485;      !- Field 27

                             !- Field 8
                             !- Field 10
                             !- Field 29
                             !- Field 36

  Schedule:Compact,
    BLDG_LIGHT_OFFICE_BSMT_SCH,  !- Name
    Fraction,                !- Schedule Type Limits Name
    Through: 12/31,          !- Field 1
    For: Weekdays,           !- Field 2
    Until: 7:00,0.1,         !- Field 3
    Until: 8:00,0.447984375, !- Field 5
    Until: 16:00,0.806371875,!- Field 7
    Until: 22:00,0.268790625,!- Field 9
    Until: 23:00,0.3,        !- Field 11
    Until: 24:00,0.1,        !- Field 13
    For: SummerDesignDay,    !- Field 15
    Until: 24:00,1,          !- Field 16
    For: WinterDesignDay,    !- Field 18
    Until: 24:00,0,          !- Field 19
    For: Saturday,           !- Field 21
    Until: 7:00,0.1,         !- Field 22
    Until: 8:00,0.17919375,  !- Field 24
    Until: 18:00,0.3583875,  !- Field 26
    Until: 19:00,0.089596875,!- Field 28
    Until: 24:00,0.1,        !- Field 30
    For: Sunday Holidays AllOtherDays, !- Field 32
    Until: 8:00,0.05,        !- Field 33
    Until: 16:00,0.089596875,!- Field 35
    Until: 24:00,0.05;       !- Field 37

  Schedule:Compact,
    BLDG_LIGHT_OFFICE_SCH,   !- Name
    Fraction,                !- Schedule Type Limits Name
    Through: 12/31,          !- Field 1
    For: Weekdays,           !- Field 2
    Until: 7:00,0.1,         !- Field 3
    Until: 8:00,0.40595,     !- Field 5
    Until: 16:00,0.73071,    !- Field 7
    Until: 22:00,0.24357,    !- Field 9
    Until: 23:00,0.3,        !- Field 11
    Until: 24:00,0.1,        !- Field 13
    For: SummerDesignDay,    !- Field 15
    Until: 24:00,1,          !- Field 16
    For: WinterDesignDay,    !- Field 18
    Until: 24:00,0,          !- Field 19
    For: Saturday,           !- Field 21
    Until: 7:00,0.1,         !- Field 22
    Until: 8:00,0.16238,     !- Field 24
    Until: 18:00,0.32476,    !- Field 26
    Until: 19:00,0.08119,    !- Field 28
    Until: 24:00,0.1,        !- Field 30
    For: Sunday Holidays AllOtherDays, !- Field 32
    Until: 8:00,0.05,        !- Field 33
    Until: 16:00,0.08119,    !- Field 35
    Until: 24:00,0.05;       !- Field 37

  Schedule:Compact,
    BLDG_LIGHT_RADIOLOGY_SCH,!- Name
    Fraction,                !- Schedule Type Limits Name
    Through: 12/31,          !- Field 1
    For: Weekdays,           !- Field 2
    Until: 7:00,0.1,         !- Field 3
    Until: 8:00,0.39,        !- Field 5
    Until: 16:00,0.702,      !- Field 7
    Until: 22:00,0.234,      !- Field 9
    Until: 23:00,0.3,        !- Field 11
    Until: 24:00,0.1,        !- Field 13
    For: SummerDesignDay,    !- Field 15
    Until: 24:00,1,          !- Field 16
    For: WinterDesignDay,    !- Field 18
    Until: 24:00,0,          !- Field 19
    For: Saturday,           !- Field 21
    Until: 7:00,0.1,         !- Field 22
    Until: 8:00,0.156,       !- Field 24
    Until: 18:00,0.312,      !- Field 26
    Until: 19:00,0.078,      !- Field 28
    Until: 24:00,0.1,        !- Field 30
    For: Sunday Holidays AllOtherDays, !- Field 32
    Until: 8:00,0.05,        !- Field 33
    Until: 16:00,0.078,      !- Field 35
    Until: 24:00,0.05;       !- Field 37

  Schedule:Compact,
    BLDG_LIGHT_SCH,          !- Name
    Fraction,                !- Schedule Type Limits Name
    Through: 12/31,          !- Field 1
    For: Weekdays,           !- Field 2
    Until: 7:00,0.1,         !- Field 3
    Until: 8:00,0.5,         !- Field 5
    Until: 16:00,0.9,        !- Field 7
    Until: 23:00,0.3,        !- Field 9
    Until: 24:00,0.1,        !- Field 11
    For: SummerDesignDay,    !- Field 13
    Until: 24:00,1,          !- Field 14
    For: WinterDesignDay,    !- Field 16
    Until: 24:00,0,          !- Field 17
    For: Saturday,           !- Field 19
    Until: 7:00,0.1,         !- Field 20
    Until: 8:00,0.2,         !- Field 22
    Until: 18:00,0.4,        !- Field 24
    Until: 24:00,0.1,        !- Field 26
    For: Sunday Holidays AllOtherDays, !- Field 28
    Until: 8:00,0.05,        !- Field 29
    Until: 16:00,0.1,        !- Field 31
    Until: 24:00,0.05;       !- Field 33

  Schedule:Compact,
    walkin_occ_lght_SCH,     !- Name
    Fraction,                !- Schedule Type Limits Name
    Through: 12/31,          !- Field 1
    For: Weekdays,           !- Field 2
    Until: 7:00,0.1,         !- Field 3
    Until: 8:00,0.26,        !- Field 5
    Until: 16:00,0.468,      !- Field 7
    Until: 23:00,0.156,      !- Field 9
    Until: 24:00,0.1,        !- Field 11
    For: SummerDesignDay,    !- Field 13
    Until: 24:00,1,          !- Field 14
    For: WinterDesignDay,    !- Field 16
    Until: 24:00,0,          !- Field 17
    For: Saturday,           !- Field 19
    Until: 7:00,0.1,         !- Field 20
    Until: 8:00,0.104,       !- Field 22
    Until: 18:00,0.208,      !- Field 24
    Until: 24:00,0.1,        !- Field 26
    For: Sunday Holidays AllOtherDays, !- Field 28
    Until: 8:00,0.05,        !- Field 29
    Until: 16:00,0.052,      !- Field 31
    Until: 24:00,0.05;       !- Field 33

  Schedule:Compact,
    BLDG_OCC_SCH,            !- Name
    Fraction,                !- Schedule Type Limits Name
    Through: 12/31,          !- Field 1
    For: Weekdays,           !- Field 2
    Until: 07:00,0.0,        !- Field 3
    Until: 08:00,0.1,        !- Field 5
    Until: 09:00,0.5,        !- Field 7
    Until: 17:00,0.8,        !- Field 9
    Until: 18:00,0.5,        !- Field 11
    Until: 20:00,0.3,        !- Field 13
    Until: 22:00,0.2,        !- Field 15
    Until: 24:00,0.0,        !- Field 17
    For: SummerDesignDay,    !- Field 19
    Until: 24:00,1.0,        !- Field 20
    For: WinterDesignDay,    !- Field 22
    Until: 24:00,0.0,        !- Field 23
    For: Saturday,           !- Field 25
    Until: 07:00,0.0,        !- Field 26
    Until: 08:00,0.1,        !- Field 28
    Until: 09:00,0.3,        !- Field 30
    Until: 17:00,0.4,        !- Field 32
    Until: 19:00,0.1,        !- Field 34
    Until: 24:00,0.0,        !- Field 36
    For: Sunday Holidays AllOtherDays, !- Field 38
    Until: 08:00,0.0,        !- Field 39
    Until: 16:00,0.05,       !- Field 41
    Until: 24:00,0.0;        !- Field 43

  Schedule:Compact,
    BLDG_OCC_EXTD_SCH,       !- Name
    Fraction,                !- Schedule Type Limits Name
    Through: 12/31,          !- Field 1
    For: Weekdays,           !- Field 2
    Until: 07:00,0.4,        !- Field 3
    Until: 08:00,0.5,        !- Field 5
    Until: 09:00,0.6,        !- Field 7
    Until: 17:00,0.8,        !- Field 9
    Until: 18:00,0.6,        !- Field 11
    Until: 20:00,0.5,        !- Field 13
    Until: 24:00,0.4,        !- Field 15
    For: SummerDesignDay,    !- Field 17
    Until: 24:00,1.0,        !- Field 18
    For: WinterDesignDay,    !- Field 20
    Until: 24:00,0.0,        !- Field 21
    For: Saturday,           !- Field 23
    Until: 07:00,0.4,        !- Field 24
    Until: 08:00,0.5,        !- Field 26
    Until: 17:00,0.6,        !- Field 28
    Until: 19:00,0.5,        !- Field 30
    Until: 24:00,0.4,        !- Field 32
    For: Sunday Holidays AllOtherDays, !- Field 34
    Until: 08:00,0.4,        !- Field 35
    Until: 16:00,0.6,        !- Field 37
    Until: 24:00,0.4;        !- Field 39

                             !- Field 4
                             !- Field 6
                             !- Field 8
                             !- Field 10
                             !- Field 12
                             !- Field 14
                             !- Field 23
                             !- Field 25