!-Generator IDFEditor 1.51
!-Option SortedOrder UseSpecialFormat
!-NOTE: All comments with '!-' are ignored by the IDFEditor and are generated automatically.
!-      Use '!' comments if they need to be retained when using the IDFEditor.
!-   ===========  ALL OBJECTS IN CLASS: VERSION ===========

  Version,24.1;

!-   ===========  ALL OBJECTS IN CLASS: SIMULATIONCONTROL ===========

  SimulationControl,
    Yes,                     !- Do Zone Sizing Calculation
    Yes,                     !- Do System Sizing Calculation
    Yes,                     !- Do Plant Sizing Calculation
    No,                      !- Run Simulation for Sizing Periods
    YES,                     !- Run Simulation for Weather File Run Periods
    No,                      !- Do HVAC Sizing Simulation for Sizing Periods
    1;                       !- Maximum Number of HVAC Sizing Simulation Passes

!-   ===========  ALL OBJECTS IN CLASS: BUILDING ===========

  Building,
    HotelSmall,              !- Name
    180,                     !- North Axis {deg}
    Suburbs,                 !- Terrain
    0.0400,                  !- Loads Convergence Tolerance Value {W}
    0.4,                     !- Temperature Convergence Tolerance Value {deltaC}
    MinimalShadowing,        !- Solar Distribution
    15,                      !- Maximum Number of Warmup Days
    6;                       !- Minimum Number of Warmup Days

!-   ===========  ALL OBJECTS IN CLASS: SURFACECONVECTIONALGORITHM:INSIDE ===========

  SurfaceConvectionAlgorithm:Inside,TARP;

!-   ===========  ALL OBJECTS IN CLASS: SURFACECONVECTIONALGORITHM:OUTSIDE ===========

  SurfaceConvectionAlgorithm:Outside,TARP;

!-   ===========  ALL OBJECTS IN CLASS: HEATBALANCEALGORITHM ===========

  HeatBalanceAlgorithm,ConductionTransferFunction;

!-   ===========  ALL OBJECTS IN CLASS: TIMESTEP ===========

  Timestep,4;

!-   ===========  ALL OBJECTS IN CLASS: CONVERGENCELIMITS ===========

  ConvergenceLimits,
    15,                      !- Minimum System Timestep {minutes}
    5;                       !- Maximum HVAC Iterations

!-   ===========  ALL OBJECTS IN CLASS: SITE:LOCATION ===========

  Site:Location,
    Denver-Aurora-Buckley.AFB_CO_USA WMO=724695,  !- Name
    39.72,                   !- Latitude {deg}
    -104.75,                 !- Longitude {deg}
    -7.00,                   !- Time Zone {hr}
    1726.00;                 !- Elevation {m}

!-   ===========  ALL OBJECTS IN CLASS: SIZINGPERIOD:DESIGNDAY ===========

  SizingPeriod:DesignDay,
    Denver-Aurora-Buckley.AFB_CO_USA Ann Htg 99.6% Condns DB,  !- Name
    12,                      !- Month
    21,                      !- Day of Month
    WinterDesignDay,         !- Day Type
    -17.9,                   !- Maximum Dry-Bulb Temperature {C}
    0.0,                     !- Daily Dry-Bulb Temperature Range {deltaC}
    DefaultMultipliers,      !- Dry-Bulb Temperature Range Modifier Type
    ,                        !- Dry-Bulb Temperature Range Modifier Day Schedule Name
    Wetbulb,                 !- Humidity Condition Type
    -17.9,                   !- Wetbulb or DewPoint at Maximum Dry-Bulb {C}
    ,                        !- Humidity Condition Day Schedule Name
    ,                        !- Humidity Ratio at Maximum Dry-Bulb {kgWater/kgDryAir}
    ,                        !- Enthalpy at Maximum Dry-Bulb {J/kg}
    ,                        !- Daily Wet-Bulb Temperature Range {deltaC}
    82237.,                  !- Barometric Pressure {Pa}
    2.5,                     !- Wind Speed {m/s}
    180,                     !- Wind Direction {deg}
    No,                      !- Rain Indicator
    No,                      !- Snow Indicator
    No,                      !- Daylight Saving Time Indicator
    ASHRAEClearSky,          !- Solar Model Indicator
    ,                        !- Beam Solar Day Schedule Name
    ,                        !- Diffuse Solar Day Schedule Name
    ,                        !- ASHRAE Clear Sky Optical Depth for Beam Irradiance (taub) {dimensionless}
    ,                        !- ASHRAE Clear Sky Optical Depth for Diffuse Irradiance (taud) {dimensionless}
    0.00;                    !- Sky Clearness

  SizingPeriod:DesignDay,
    Denver-Aurora-Buckley.AFB_CO_USA Ann Clg .4% Condns DB=>MWB,  !- Name
    7,                       !- Month
    21,                      !- Day of Month
    SummerDesignDay,         !- Day Type
    33.9,                    !- Maximum Dry-Bulb Temperature {C}
    14.8,                    !- Daily Dry-Bulb Temperature Range {deltaC}
    DefaultMultipliers,      !- Dry-Bulb Temperature Range Modifier Type
    ,                        !- Dry-Bulb Temperature Range Modifier Day Schedule Name
    Wetbulb,                 !- Humidity Condition Type
    15,                      !- Wetbulb or DewPoint at Maximum Dry-Bulb {C}
    ,                        !- Humidity Condition Day Schedule Name
    ,                        !- Humidity Ratio at Maximum Dry-Bulb {kgWater/kgDryAir}
    ,                        !- Enthalpy at Maximum Dry-Bulb {J/kg}
    ,                        !- Daily Wet-Bulb Temperature Range {deltaC}
    82237.,                  !- Barometric Pressure {Pa}
    3.6,                     !- Wind Speed {m/s}
    30,                      !- Wind Direction {deg}
    No,                      !- Rain Indicator
    No,                      !- Snow Indicator
    No,                      !- Daylight Saving Time Indicator
    ASHRAETau,               !- Solar Model Indicator
    ,                        !- Beam Solar Day Schedule Name
    ,                        !- Diffuse Solar Day Schedule Name
    0.423,                   !- ASHRAE Clear Sky Optical Depth for Beam Irradiance (taub) {dimensionless}
    2.020;                   !- ASHRAE Clear Sky Optical Depth for Diffuse Irradiance (taud) {dimensionless}

!-   ===========  ALL OBJECTS IN CLASS: RUNPERIOD ===========

  RunPeriod,
    RUNPERIOD 1,             !- Name
    1,                       !- Begin Month
    1,                       !- Begin Day of Month
    ,                        !- Begin Year
    1,                       !- End Month
    31,                      !- End Day of Month
    ,                        !- End Year
    Sunday,                  !- Day of Week for Start Day
    No,                      !- Use Weather File Holidays and Special Days
    No,                      !- Use Weather File Daylight Saving Period
    Yes,                     !- Apply Weekend Holiday Rule
    Yes,                     !- Use Weather File Rain Indicators
    Yes;                     !- Use Weather File Snow Indicators

  RunPeriod,
    RUNPERIOD 2,             !- Name
    4,                       !- Begin Month
    1,                       !- Begin Day of Month
    ,                        !- Begin Year
    4,                       !- End Month
    30,                      !- End Day of Month
    ,                        !- End Year
    Sunday,                  !- Day of Week for Start Day
    No,                      !- Use Weather File Holidays and Special Days
    No,                      !- Use Weather File Daylight Saving Period
    No,                      !- Apply Weekend Holiday Rule
    Yes,                     !- Use Weather File Rain Indicators
    Yes;                     !- Use Weather File Snow Indicators

  RunPeriod,
    RUNPERIOD 3,             !- Name
    7,                       !- Begin Month
    1,                       !- Begin Day of Month
    ,                        !- Begin Year
    7,                       !- End Month
    31,                      !- End Day of Month
    ,                        !- End Year
    Sunday,                  !- Day of Week for Start Day
    No,                      !- Use Weather File Holidays and Special Days
    No,                      !- Use Weather File Daylight Saving Period
    No,                      !- Apply Weekend Holiday Rule
    Yes,                     !- Use Weather File Rain Indicators
    Yes;                     !- Use Weather File Snow Indicators

!-   ===========  ALL OBJECTS IN CLASS: RUNPERIODCONTROL:SPECIALDAYS ===========

  RunPeriodControl:SpecialDays,
    New Years Day,           !- Name
    January 1,               !- Start Date
    1,                       !- Duration {days}
    Holiday;                 !- Special Day Type

  RunPeriodControl:SpecialDays,
    Veterans Day,            !- Name
    November 11,             !- Start Date
    1,                       !- Duration {days}
    Holiday;                 !- Special Day Type

  RunPeriodControl:SpecialDays,
    Christmas,               !- Name
    December 25,             !- Start Date
    1,                       !- Duration {days}
    Holiday;                 !- Special Day Type

  RunPeriodControl:SpecialDays,
    Independence Day,        !- Name
    July 4,                  !- Start Date
    1,                       !- Duration {days}
    Holiday;                 !- Special Day Type

  RunPeriodControl:SpecialDays,
    MLK Day,                 !- Name
    3rd Monday in January,   !- Start Date
    1,                       !- Duration {days}
    Holiday;                 !- Special Day Type

  RunPeriodControl:SpecialDays,
    Presidents Day,          !- Name
    3rd Monday in February,  !- Start Date
    1,                       !- Duration {days}
    Holiday;                 !- Special Day Type

  RunPeriodControl:SpecialDays,
    Memorial Day,            !- Name
    Last Monday in May,      !- Start Date
    1,                       !- Duration {days}
    Holiday;                 !- Special Day Type

  RunPeriodControl:SpecialDays,
    Labor Day,               !- Name
    1st Monday in September, !- Start Date
    1,                       !- Duration {days}
    Holiday;                 !- Special Day Type

  RunPeriodControl:SpecialDays,
    Columbus Day,            !- Name
    2nd Monday in October,   !- Start Date
    1,                       !- Duration {days}
    Holiday;                 !- Special Day Type

  RunPeriodControl:SpecialDays,
    Thanksgiving,            !- Name
    4th Thursday in November,!- Start Date
    1,                       !- Duration {days}
    Holiday;                 !- Special Day Type

!-   ===========  ALL OBJECTS IN CLASS: RUNPERIODCONTROL:DAYLIGHTSAVINGTIME ===========

  RunPeriodControl:DaylightSavingTime,
    2nd Sunday in March,     !- Start Date
    1st Sunday in November;  !- End Date

!-   ===========  ALL OBJECTS IN CLASS: SITE:GROUNDTEMPERATURE:FCFACTORMETHOD ===========

  Site:GroundTemperature:FCfactorMethod,7.1,3.0,-1.0,0.8,-0.2,4.8,6.1,13.7,22.2,22.7,21.7,18.5;

!-   ===========  ALL OBJECTS IN CLASS: SITE:WATERMAINSTEMPERATURE ===========

  Site:WaterMainsTemperature,
    Correlation,             !- Calculation Method
    ,                        !- Temperature Schedule Name
    9.95,                    !- Annual Average Outdoor Air Temperature {C}
    23.7;                    !- Maximum Difference In Monthly Average Outdoor Air Temperatures {deltaC}

!-   ===========  ALL OBJECTS IN CLASS: SCHEDULETYPELIMITS ===========

  ScheduleTypeLimits,
    Any Number;              !- Name

  ScheduleTypeLimits,
    Fraction,                !- Name
    0.0,                     !- Lower Limit Value
    ,                        !- Upper Limit Value
    Continuous;              !- Numeric Type

  ScheduleTypeLimits,
    Temperature,             !- Name
    -60,                     !- Lower Limit Value
    200,                     !- Upper Limit Value
    Continuous;              !- Numeric Type

  ScheduleTypeLimits,
    Control Type,            !- Name
    0,                       !- Lower Limit Value
    4,                       !- Upper Limit Value
    Discrete;                !- Numeric Type

  ScheduleTypeLimits,
    On/Off,                  !- Name
    0,                       !- Lower Limit Value
    1,                       !- Upper Limit Value
    Discrete;                !- Numeric Type

  ScheduleTypeLimits,
    COMPACT HVAC Any Number; !- Name

!-   ===========  ALL OBJECTS IN CLASS: SCHEDULE:COMPACT ===========

  Schedule:Compact,
    Exterior_Lgt_ALWAYS_ON,  !- Name
    Fraction,                !- Schedule Type Limits Name
    Through: 12/31,          !- Field 1
    For: AllDays,            !- Field 2
    Until: 24:00,1;          !- Field 3

  Schedule:Compact,
    AlwaysOn,                !- Name
    On/Off,                  !- Schedule Type Limits Name
    Through: 12/31,          !- Field 1
    For: AllDays,            !- Field 2
    Until: 24:00,1;          !- Field 3

  Schedule:Compact,
    AlwaysOff,               !- Name
    On/Off,                  !- Schedule Type Limits Name
    Through: 12/31,          !- Field 1
    For: AllDays,            !- Field 2
    Until: 24:00,0;          !- Field 3

  Schedule:Compact,
    COMPACT HVAC-ALWAYS 1,   !- Name
    COMPACT HVAC Any Number, !- Schedule Type Limits Name
    Through: 12/31,          !- Field 1
    For: AllDays,            !- Field 2
    Until: 24:00,1;          !- Field 3

  Schedule:Compact,
    Office_Fan_Sch,          !- Name
    Fraction,                !- Schedule Type Limits Name
    Through: 12/31,          !- Field 1
    For: Weekdays,           !- Field 2
    Until: 01:00,1,          !- Field 3
    Until: 02:00,1,          !- Field 5
    Until: 03:00,1,          !- Field 7
    Until: 04:00,1,          !- Field 9
    Until: 05:00,1,          !- Field 11
    Until: 06:00,1,          !- Field 13
    Until: 07:00,1,          !- Field 15
    Until: 08:00,1,          !- Field 17
    Until: 09:00,1,          !- Field 19
    Until: 10:00,1,          !- Field 21
    Until: 11:00,1,          !- Field 23
    Until: 12:00,1,          !- Field 25
    Until: 13:00,0,          !- Field 27
    Until: 14:00,1,          !- Field 29
    Until: 15:00,0,          !- Field 31
    Until: 16:00,1,          !- Field 33
    Until: 17:00,1,          !- Field 35
    Until: 18:00,1,          !- Field 37
    Until: 19:00,1,          !- Field 39
    Until: 20:00,1,          !- Field 41
    Until: 21:00,1,          !- Field 43
    Until: 22:00,1,          !- Field 45
    Until: 23:00,1,          !- Field 47
    Until: 24:00,1,          !- Field 49
    For: Saturday Sunday Holidays, !- Field 51
    Until: 01:00,1,          !- Field 52
    Until: 02:00,1,          !- Field 54
    Until: 03:00,1,          !- Field 56
    Until: 04:00,1,          !- Field 58
    Until: 05:00,1,          !- Field 60
    Until: 06:00,1,          !- Field 62
    Until: 07:00,1,          !- Field 64
    Until: 08:00,1,          !- Field 66
    Until: 09:00,1,          !- Field 68
    Until: 10:00,1,          !- Field 70
    Until: 11:00,1,          !- Field 72
    Until: 12:00,0,          !- Field 74
    Until: 13:00,1,          !- Field 76
    Until: 14:00,1,          !- Field 78
    Until: 15:00,0,          !- Field 80
    Until: 16:00,1,          !- Field 82
    Until: 17:00,1,          !- Field 84
    Until: 18:00,1,          !- Field 86
    Until: 19:00,1,          !- Field 88
    Until: 20:00,1,          !- Field 90
    Until: 21:00,1,          !- Field 92
    Until: 22:00,1,          !- Field 94
    Until: 23:00,1,          !- Field 96
    Until: 24:00,1,          !- Field 98
    For: AllOtherDays,       !- Field 100
    Until: 24:00,1;          !- Field 101

  Schedule:Compact,
    COMPACT HVAC-ALWAYS 4,   !- Name
    COMPACT HVAC Any Number, !- Schedule Type Limits Name
    Through: 12/31,          !- Field 1
    For: AllDays,            !- Field 2
    Until: 24:00,4;          !- Field 3

  Schedule:Compact,
    COMPACT HVAC-ALWAYS 0,   !- Name
    COMPACT HVAC Any Number, !- Schedule Type Limits Name
    Through: 12/31,          !- Field 1
    For: AllDays,            !- Field 2
    Until: 24:00,0;          !- Field 3

  Schedule:Compact,
    GuestRoom_Occ_Sch,       !- Name
    Fraction,                !- Schedule Type Limits Name
    Through: 12/31,          !- Field 1
    For: Weekdays,           !- Field 2
    Until: 06:00,1.0,        !- Field 3
    Until: 07:00,0.77,       !- Field 5
    Until: 09:00,0.43,       !- Field 7
    Until: 15:00,0.2,        !- Field 9
    Until: 16:00,0.31,       !- Field 11
    Until: 19:00,0.54,       !- Field 13
    Until: 21:00,0.77,       !- Field 15
    Until: 22:00,0.89,       !- Field 17
    Until: 24:00,1.0,        !- Field 19
    For: Saturday Sunday Holidays, !- Field 21
    Until: 06:00,1.0,        !- Field 22
    Until: 07:00,0.77,       !- Field 24
    Until: 09:00,0.53,       !- Field 26
    Until: 17:00,0.3,        !- Field 28
    Until: 18:00,0.53,       !- Field 30
    Until: 19:00,0.54,       !- Field 32
    Until: 21:00,0.65,       !- Field 34
    Until: 24:00,0.77,       !- Field 36
    For: WinterDesignDay,    !- Field 38
    Until: 24:00,0,          !- Field 39
    For: SummerDesignDay CustomDay1 CustomDay2, !- Field 41
    Until: 24:00,1.0;        !- Field 42

  Schedule:Compact,
    Lobby_Occ_Sch,           !- Name
    Fraction,                !- Schedule Type Limits Name
    Through: 12/31,          !- Field 1
    For: Weekdays,           !- Field 2
    Until: 05:00,0.1,        !- Field 3
    Until: 06:00,0.3,        !- Field 5
    Until: 10:00,0.7,        !- Field 7
    Until: 16:00,0.2,        !- Field 9
    Until: 18:00,0.4,        !- Field 11
    Until: 22:00,0.2,        !- Field 13
    Until: 24:00,0.1,        !- Field 15
    For: Saturday Sunday Holidays, !- Field 17
    Until: 06:00,0.1,        !- Field 18
    Until: 07:00,0.3,        !- Field 20
    Until: 10:00,0.7,        !- Field 22
    Until: 22:00,0.2,        !- Field 24
    Until: 24:00,0.1,        !- Field 26
    For: WinterDesignDay,    !- Field 28
    Until: 24:00,0,          !- Field 29
    For: SummerDesignDay CustomDay1 CustomDay2, !- Field 31
    Until: 24:00,1.0;        !- Field 32

  Schedule:Compact,
    Office_Occ_Sch,          !- Name
    Fraction,                !- Schedule Type Limits Name
    Through: 12/31,          !- Field 1
    For: Weekdays,           !- Field 2
    Until: 06:00,0.2,        !- Field 3
    Until: 07:00,0.3,        !- Field 5
    Until: 08:00,0.4,        !- Field 7
    Until: 12:00,1.0,        !- Field 9
    Until: 13:00,0.5,        !- Field 11
    Until: 17:00,1.0,        !- Field 13
    Until: 18:00,0.4,        !- Field 15
    Until: 19:00,0.3,        !- Field 17
    Until: 24:00,0.2,        !- Field 19
    For: Saturday Sunday Holidays, !- Field 21
    Until: 07:00,0.2,        !- Field 22
    Until: 08:00,0.3,        !- Field 24
    Until: 17:00,0.5,        !- Field 26
    Until: 18:00,0.3,        !- Field 28
    Until: 24:00,0.2,        !- Field 30
    For: WinterDesignDay,    !- Field 32
    Until: 24:00,0,          !- Field 33
    For: SummerDesignDay CustomDay1 CustomDay2, !- Field 35
    Until: 24:00,1.0;        !- Field 36

  Schedule:Compact,
    Office_Occ_w_SB_Sch,     !- Name
    Fraction,                !- Schedule Type Limits Name
    Through: 12/31,          !- Field 1
    For: Weekdays,           !- Field 2
    Until: 01:00,0.2,        !- Field 3
    Until: 02:00,0.2,        !- Field 5
    Until: 03:00,0.2,        !- Field 7
    Until: 04:00,0.2,        !- Field 9
    Until: 05:00,0.2,        !- Field 11
    Until: 06:00,0.2,        !- Field 13
    Until: 07:00,0.3,        !- Field 15
    Until: 08:00,0.4,        !- Field 17
    Until: 09:00,1,          !- Field 19
    Until: 10:00,1,          !- Field 21
    Until: 11:00,1,          !- Field 23
    Until: 12:00,1,          !- Field 25
    Until: 13:00,0,          !- Field 27
    Until: 14:00,1,          !- Field 29
    Until: 15:00,0,          !- Field 31
    Until: 16:00,1,          !- Field 33
    Until: 17:00,1,          !- Field 35
    Until: 18:00,0.4,        !- Field 37
    Until: 19:00,0.3,        !- Field 39
    Until: 20:00,0.2,        !- Field 41
    Until: 21:00,0.2,        !- Field 43
    Until: 22:00,0.2,        !- Field 45
    Until: 23:00,0.2,        !- Field 47
    Until: 24:00,0.2,        !- Field 49
    For: Saturday Sunday Holidays, !- Field 51
    Until: 01:00,0.2,        !- Field 52
    Until: 02:00,0.2,        !- Field 54
    Until: 03:00,0.2,        !- Field 56
    Until: 04:00,0.2,        !- Field 58
    Until: 05:00,0.2,        !- Field 60
    Until: 06:00,0.2,        !- Field 62
    Until: 07:00,0.2,        !- Field 64
    Until: 08:00,0.3,        !- Field 66
    Until: 09:00,0.5,        !- Field 68
    Until: 10:00,0.5,        !- Field 70
    Until: 11:00,0.5,        !- Field 72
    Until: 12:00,0,          !- Field 74
    Until: 13:00,0.5,        !- Field 76
    Until: 14:00,0.5,        !- Field 78
    Until: 15:00,0,          !- Field 80
    Until: 16:00,0.5,        !- Field 82
    Until: 17:00,0.5,        !- Field 84
    Until: 18:00,0.3,        !- Field 86
    Until: 19:00,0.2,        !- Field 88
    Until: 20:00,0.2,        !- Field 90
    Until: 21:00,0.2,        !- Field 92
    Until: 22:00,0.2,        !- Field 94
    Until: 23:00,0.2,        !- Field 96
    Until: 24:00,0.2,        !- Field 98
    For: WinterDesignDay,    !- Field 100
    Until: 24:00,0.0,        !- Field 101
    For: SummerDesignDay CustomDay1 CustomDay2, !- Field 103
    Until: 24:00,1.0;        !- Field 104

  Schedule:Compact,
    EmployeeLounge_Occ_Sch,  !- Name
    Fraction,                !- Schedule Type Limits Name
    Through: 12/31,          !- Field 1
    For: Weekdays,           !- Field 2
    Until: 05:00,0.0,        !- Field 3
    Until: 07:00,0.1,        !- Field 5
    Until: 12:00,0.2,        !- Field 7
    Until: 13:00,0.7,        !- Field 9
    Until: 18:00,0.2,        !- Field 11
    Until: 20:00,0.1,        !- Field 13
    Until: 24:00,0.0,        !- Field 15
    For: Saturday Sunday Holidays, !- Field 17
    Until: 05:00,0.0,        !- Field 18
    Until: 08:00,0.05,       !- Field 20
    Until: 12:00,0.1,        !- Field 22
    Until: 13:00,0.2,        !- Field 24
    Until: 18:00,0.1,        !- Field 26
    Until: 20:00,0.05,       !- Field 28
    Until: 24:00,0.0,        !- Field 30
    For: WinterDesignDay,    !- Field 32
    Until: 24:00,0.0,        !- Field 33
    For: SummerDesignDay CustomDay1 CustomDay2, !- Field 35
    Until: 24:00,1.0;        !- Field 36

  Schedule:Compact,
    MeetingRoom_Occ_Sch,     !- Name
    Fraction,                !- Schedule Type Limits Name
    Through: 12/31,          !- Field 1
    For: Weekdays,           !- Field 2
    Until: 07:00,0.0,        !- Field 3
    Until: 08:00,0.05,       !- Field 5
    Until: 10:00,0.5,        !- Field 7
    Until: 12:00,0.2,        !- Field 9
    Until: 13:00,0.05,       !- Field 11
    Until: 15:00,0.5,        !- Field 13
    Until: 18:00,0.2,        !- Field 15
    Until: 20:00,0.05,       !- Field 17
    Until: 24:00,0.0,        !- Field 19
    For: Saturday Sunday Holidays, !- Field 21
    Until: 07:00,0.0,        !- Field 22
    Until: 08:00,0.05,       !- Field 24
    Until: 10:00,0.5,        !- Field 26
    Until: 12:00,0.2,        !- Field 28
    Until: 13:00,0.05,       !- Field 30
    Until: 15:00,0.5,        !- Field 32
    Until: 18:00,0.2,        !- Field 34
    Until: 20:00,0.05,       !- Field 36
    Until: 24:00,0.0,        !- Field 38
    For: WinterDesignDay,    !- Field 40
    Until: 24:00,0.0,        !- Field 41
    For: SummerDesignDay CustomDay1 CustomDay2, !- Field 43
    Until: 24:00,1.0;        !- Field 44

  Schedule:Compact,
    MeetingRoom_Occ_w_SB_Sch,!- Name
    Fraction,                !- Schedule Type Limits Name
    Through: 12/31,          !- Field 1
    For: Weekdays,           !- Field 2
    Until: 01:00,0,          !- Field 3
    Until: 02:00,0,          !- Field 5
    Until: 03:00,0,          !- Field 7
    Until: 04:00,0,          !- Field 9
    Until: 05:00,0,          !- Field 11
    Until: 06:00,0,          !- Field 13
    Until: 07:00,0,          !- Field 15
    Until: 08:00,0.05,       !- Field 17
    Until: 09:00,0.5,        !- Field 19
    Until: 10:00,0.5,        !- Field 21
    Until: 11:00,0,          !- Field 23
    Until: 12:00,0,          !- Field 25
    Until: 13:00,0.05,       !- Field 27
    Until: 14:00,0.5,        !- Field 29
    Until: 15:00,0,          !- Field 31
    Until: 16:00,0.2,        !- Field 33
    Until: 17:00,0,          !- Field 35
    Until: 18:00,0,          !- Field 37
    Until: 19:00,0,          !- Field 39
    Until: 20:00,0,          !- Field 41
    Until: 21:00,0,          !- Field 43
    Until: 22:00,0,          !- Field 45
    Until: 23:00,0,          !- Field 47
    Until: 24:00,0,          !- Field 49
    For: Saturday Sunday Holidays, !- Field 51
    Until: 01:00,0,          !- Field 52
    Until: 02:00,0,          !- Field 54
    Until: 03:00,0,          !- Field 56
    Until: 04:00,0,          !- Field 58
    Until: 05:00,0,          !- Field 60
    Until: 06:00,0,          !- Field 62
    Until: 07:00,0,          !- Field 64
    Until: 08:00,0.05,       !- Field 66
    Until: 09:00,0.5,        !- Field 68
    Until: 10:00,0.5,        !- Field 70
    Until: 11:00,0.2,        !- Field 72
    Until: 12:00,0.2,        !- Field 74
    Until: 13:00,0,          !- Field 76
    Until: 14:00,0,          !- Field 78
    Until: 15:00,0,          !- Field 80
    Until: 16:00,0,          !- Field 82
    Until: 17:00,0,          !- Field 84
    Until: 18:00,0,          !- Field 86
    Until: 19:00,0,          !- Field 88
    Until: 20:00,0,          !- Field 90
    Until: 21:00,0,          !- Field 92
    Until: 22:00,0,          !- Field 94
    Until: 23:00,0,          !- Field 96
    Until: 24:00,0,          !- Field 98
    For: WinterDesignDay,    !- Field 100
    Until: 24:00,0.0,        !- Field 101
    For: SummerDesignDay CustomDay1 CustomDay2, !- Field 103
    Until: 24:00,1.0;        !- Field 104

  Schedule:Compact,
    LaundryRoom_Occ_Sch,     !- Name
    Fraction,                !- Schedule Type Limits Name
    Through: 12/31,          !- Field 1
    For: Weekdays,           !- Field 2
    Until: 08:00,0.0,        !- Field 3
    Until: 10:00,0.09,       !- Field 5
    Until: 12:00,0.18,       !- Field 7
    Until: 13:00,0.0,        !- Field 9
    Until: 16:00,0.18,       !- Field 11
    Until: 17:00,0.09,       !- Field 13
    Until: 24:00,0.0,        !- Field 15
    For: Saturday Sunday Holidays, !- Field 17
    Until: 08:00,0.0,        !- Field 18
    Until: 10:00,0.09,       !- Field 20
    Until: 12:00,0.18,       !- Field 22
    Until: 13:00,0.0,        !- Field 24
    Until: 16:00,0.18,       !- Field 26
    Until: 17:00,0.09,       !- Field 28
    Until: 24:00,0.0,        !- Field 30
    For: WinterDesignDay,    !- Field 32
    Until: 24:00,0.0,        !- Field 33
    For: SummerDesignDay CustomDay1 CustomDay2, !- Field 35
    Until: 24:00,1.0;        !- Field 36

  Schedule:Compact,
    ExerciseCenter_Occ_Sch,  !- Name
    Fraction,                !- Schedule Type Limits Name
    Through: 12/31,          !- Field 1
    For: AllDays,            !- Field 2
    Until: 06:00,0.0,        !- Field 3
    Until: 07:00,0.5,        !- Field 5
    Until: 11:00,1.0,        !- Field 7
    Until: 12:00,0.5,        !- Field 9
    Until: 13:00,0.0,        !- Field 11
    Until: 22:00,1.0,        !- Field 13
    Until: 23:00,0.5,        !- Field 15
    Until: 24:00,0.0;        !- Field 17

  Schedule:Compact,
    AlwaysOff_SCH,           !- Name
    Fraction,                !- Schedule Type Limits Name
    Through: 12/31,          !- Field 1
    For: AllDays,            !- Field 2
    Until: 24:00,0;          !- Field 3

  Schedule:Compact,
    AlwaysOn_SCH,            !- Name
    Fraction,                !- Schedule Type Limits Name
    Through: 12/31,          !- Field 1
    For: AllDays,            !- Field 2
    Until: 24:00,1;          !- Field 3

  Schedule:Compact,
    BLDG_LIGHT_CORRIDOR_SCH, !- Name
    Fraction,                !- Schedule Type Limits Name
    Through: 12/31,          !- Field 1
    For: AllDays,            !- Field 2
    Until: 24:00,0.65;       !- Field 3

  Schedule:Compact,
    BLDG_LIGHT_EMPLOYEELOUNGE_SCH,  !- Name
    Fraction,                !- Schedule Type Limits Name
    Through: 12/31,          !- Field 1
    For: Weekdays Saturday Sunday Holidays, !- Field 2
    Until: 5:00,0,           !- Field 3
    Until: 6:00,0.2,         !- Field 5
    Until: 7:00,0.3,         !- Field 7
    Until: 8:00,0.5,         !- Field 9
    Until: 18:00,1,          !- Field 11
    Until: 19:00,0.5,        !- Field 13
    Until: 20:00,0.3,        !- Field 15
    Until: 21:00,0.2,        !- Field 17
    Until: 22:00,0.05,       !- Field 19
    Until: 24:00,0,          !- Field 21
    For: WinterDesignDay,    !- Field 23
    Until: 24:00,0,          !- Field 24
    For: SummerDesignDay CustomDay1 CustomDay2, !- Field 26
    Until: 24:00,1;          !- Field 27

  Schedule:Compact,
    BLDG_LIGHT_EXERCENTER_SCH,  !- Name
    Fraction,                !- Schedule Type Limits Name
    Through: 12/31,          !- Field 1
    For: AllDays,            !- Field 2
    Until: 6:00,0,           !- Field 3
    Until: 7:00,0.5,         !- Field 5
    Until: 22:00,1,          !- Field 7
    Until: 23:00,0.5,        !- Field 9
    Until: 24:00,0;          !- Field 11

  Schedule:Compact,
    BLDG_LIGHT_FRONTLOUNGE_SCH,  !- Name
    Fraction,                !- Schedule Type Limits Name
    Through: 12/31,          !- Field 1
    For: Weekdays Saturday Sunday Holidays, !- Field 2
    Until: 5:00,0,           !- Field 3
    Until: 6:00,0.2,         !- Field 5
    Until: 7:00,0.3,         !- Field 7
    Until: 8:00,0.5,         !- Field 9
    Until: 18:00,1,          !- Field 11
    Until: 19:00,0.5,        !- Field 13
    Until: 20:00,0.3,        !- Field 15
    Until: 21:00,0.2,        !- Field 17
    Until: 22:00,0.05,       !- Field 19
    Until: 24:00,0,          !- Field 21
    For: WinterDesignDay,    !- Field 23
    Until: 24:00,0,          !- Field 24