!-Generator IDFEditor 1.51
!-Option SortedOrder UseSpecialFormat
!-NOTE: All comments with '!-' are ignored by the IDFEditor and are generated automatically.
!-      Use '!' comments if they need to be retained when using the IDFEditor.
!-   ===========  ALL OBJECTS IN CLASS: VERSION ===========

  Version,24.1;

!-   ===========  ALL OBJECTS IN CLASS: SIMULATIONCONTROL ===========

  SimulationControl,
    Yes,                     !- Do Zone Sizing Calculation
    Yes,                     !- Do System Sizing Calculation
    Yes,                     !- Do Plant Sizing Calculation
    No,                      !- Run Simulation for Sizing Periods
    YES,                     !- Run Simulation for Weather File Run Periods
    No,                      !- Do HVAC Sizing Simulation for Sizing Periods
    1;                       !- Maximum Number of HVAC Sizing Simulation Passes

!-   ===========  ALL OBJECTS IN CLASS: BUILDING ===========

  Building,
    OfficeLarge,             !- Name
    0.0000,                  !- North Axis {deg}
    City,                    !- Terrain
    0.0400,                  !- Loads Convergence Tolerance Value {W}
    0.2000,                  !- Temperature Convergence Tolerance Value {deltaC}
    MinimalShadowing,        !- Solar Distribution
    15,                      !- Maximum Number of Warmup Days
    6;                       !- Minimum Number of Warmup Days

!-   ===========  ALL OBJECTS IN CLASS: SHADOWCALCULATION ===========

  ShadowCalculation,
    PolygonClipping,         !- Shading Calculation Method
    Periodic,                !- Shading Calculation Update Frequency Method
    30;                      !- Shading Calculation Update Frequency

!-   ===========  ALL OBJECTS IN CLASS: SURFACECONVECTIONALGORITHM:INSIDE ===========

  SurfaceConvectionAlgorithm:Inside,TARP;

!-   ===========  ALL OBJECTS IN CLASS: SURFACECONVECTIONALGORITHM:OUTSIDE ===========

  SurfaceConvectionAlgorithm:Outside,TARP;

!-   ===========  ALL OBJECTS IN CLASS: HEATBALANCEALGORITHM ===========

  HeatBalanceAlgorithm,ConductionTransferFunction;

!-   ===========  ALL OBJECTS IN CLASS: TIMESTEP ===========

  Timestep,4;

!-   ===========  ALL OBJECTS IN CLASS: CONVERGENCELIMITS ===========

  ConvergenceLimits,
    15,                       !- Minimum System Timestep {minutes}
    5;                        !- Maximum HVAC Iterations

!-   ===========  ALL OBJECTS IN CLASS: SITE:LOCATION ===========

  Site:Location,
    Denver-Aurora-Buckley.AFB_CO_USA WMO=724695,  !- Name
    39.72,                   !- Latitude {deg}
    -104.75,                 !- Longitude {deg}
    -7.00,                   !- Time Zone {hr}
    1726.00;                 !- Elevation {m}

!-   ===========  ALL OBJECTS IN CLASS: SIZINGPERIOD:DESIGNDAY ===========

  SizingPeriod:DesignDay,
    Denver-Aurora-Buckley.AFB_CO_USA Ann Htg 99.6% Condns DB,  !- Name
    12,                      !- Month
    21,                      !- Day of Month
    WinterDesignDay,         !- Day Type
    -17.9,                   !- Maximum Dry-Bulb Temperature {C}
    0.0,                     !- Daily Dry-Bulb Temperature Range {deltaC}
    DefaultMultipliers,      !- Dry-Bulb Temperature Range Modifier Type
    ,                        !- Dry-Bulb Temperature Range Modifier Day Schedule Name
    Wetbulb,                 !- Humidity Condition Type
    -17.9,                   !- Wetbulb or DewPoint at Maximum Dry-Bulb {C}
    ,                        !- Humidity Condition Day Schedule Name
    ,                        !- Humidity Ratio at Maximum Dry-Bulb {kgWater/kgDryAir}
    ,                        !- Enthalpy at Maximum Dry-Bulb {J/kg}
    ,                        !- Daily Wet-Bulb Temperature Range {deltaC}
    82237.,                  !- Barometric Pressure {Pa}
    2.5,                     !- Wind Speed {m/s}
    180,                     !- Wind Direction {deg}
    No,                      !- Rain Indicator
    No,                      !- Snow Indicator
    No,                      !- Daylight Saving Time Indicator
    ASHRAEClearSky,          !- Solar Model Indicator
    ,                        !- Beam Solar Day Schedule Name
    ,                        !- Diffuse Solar Day Schedule Name
    ,                        !- ASHRAE Clear Sky Optical Depth for Beam Irradiance (taub) {dimensionless}
    ,                        !- ASHRAE Clear Sky Optical Depth for Diffuse Irradiance (taud) {dimensionless}
    0.00;                    !- Sky Clearness

  SizingPeriod:DesignDay,
    Denver-Aurora-Buckley.AFB_CO_USA Ann Clg .4% Condns DB=>MWB,  !- Name
    7,                       !- Month
    21,                      !- Day of Month
    SummerDesignDay,         !- Day Type
    33.9,                    !- Maximum Dry-Bulb Temperature {C}
    14.8,                    !- Daily Dry-Bulb Temperature Range {deltaC}
    DefaultMultipliers,      !- Dry-Bulb Temperature Range Modifier Type
    ,                        !- Dry-Bulb Temperature Range Modifier Day Schedule Name
    Wetbulb,                 !- Humidity Condition Type
    15,                      !- Wetbulb or DewPoint at Maximum Dry-Bulb {C}
    ,                        !- Humidity Condition Day Schedule Name
    ,                        !- Humidity Ratio at Maximum Dry-Bulb {kgWater/kgDryAir}
    ,                        !- Enthalpy at Maximum Dry-Bulb {J/kg}
    ,                        !- Daily Wet-Bulb Temperature Range {deltaC}
    82237.,                  !- Barometric Pressure {Pa}
    3.6,                     !- Wind Speed {m/s}
    30,                      !- Wind Direction {deg}
    No,                      !- Rain Indicator
    No,                      !- Snow Indicator
    No,                      !- Daylight Saving Time Indicator
    ASHRAETau,               !- Solar Model Indicator
    ,                        !- Beam Solar Day Schedule Name
    ,                        !- Diffuse Solar Day Schedule Name
    0.423,                   !- ASHRAE Clear Sky Optical Depth for Beam Irradiance (taub) {dimensionless}
    2.020;                   !- ASHRAE Clear Sky Optical Depth for Diffuse Irradiance (taud) {dimensionless}

!-   ===========  ALL OBJECTS IN CLASS: RUNPERIOD ===========

  RunPeriod,
    RUNPERIOD 1,             !- Name
    1,                       !- Begin Month
    1,                       !- Begin Day of Month
    ,                        !- Begin Year
    1,                      !- End Month
    31,                      !- End Day of Month
    ,                        !- End Year
    Sunday,                  !- Day of Week for Start Day
    No,                      !- Use Weather File Holidays and Special Days
    No,                      !- Use Weather File Daylight Saving Period
    No,                      !- Apply Weekend Holiday Rule
    Yes,                     !- Use Weather File Rain Indicators
    Yes;                     !- Use Weather File Snow Indicators

  RunPeriod,
    RUNPERIOD 2,              !- Name
    4,                        !- Begin Month
    1,                        !- Begin Day of Month
    ,                         !- Begin Year
    4,                        !- End Month
    30,                       !- End Day of Month
    ,                         !- End Year
    Sunday,                   !- Day of Week for Start Day
    No,                       !- Use Weather File Holidays and Special Days
    No,                       !- Use Weather File Daylight Saving Period
    No,                       !- Apply Weekend Holiday Rule
    Yes,                      !- Use Weather File Rain Indicators
    Yes;                      !- Use Weather File Snow Indicators

  RunPeriod,
    RUNPERIOD 3,              !- Name
    7,                        !- Begin Month
    1,                        !- Begin Day of Month
    ,                         !- Begin Year
    7,                        !- End Month
    31,                       !- End Day of Month
    ,                         !- End Year
    Sunday,                   !- Day of Week for Start Day
    No,                       !- Use Weather File Holidays and Special Days
    No,                       !- Use Weather File Daylight Saving Period
    No,                       !- Apply Weekend Holiday Rule
    Yes,                      !- Use Weather File Rain Indicators
    Yes;                      !- Use Weather File Snow Indicators

!-   ===========  ALL OBJECTS IN CLASS: RUNPERIODCONTROL:SPECIALDAYS ===========

  RunPeriodControl:SpecialDays,
    New Years Day,           !- Name
    January 1,               !- Start Date
    1,                       !- Duration {days}
    Holiday;                 !- Special Day Type

  RunPeriodControl:SpecialDays,
    Veterans Day,            !- Name
    November 11,             !- Start Date
    1,                       !- Duration {days}
    Holiday;                 !- Special Day Type

  RunPeriodControl:SpecialDays,
    Christmas,               !- Name
    December 25,             !- Start Date
    1,                       !- Duration {days}
    Holiday;                 !- Special Day Type

  RunPeriodControl:SpecialDays,
    Independence Day,        !- Name
    July 4,                  !- Start Date
    1,                       !- Duration {days}
    Holiday;                 !- Special Day Type

  RunPeriodControl:SpecialDays,
    MLK Day,                 !- Name
    3rd Monday in January,   !- Start Date
    1,                       !- Duration {days}
    Holiday;                 !- Special Day Type

  RunPeriodControl:SpecialDays,
    Presidents Day,          !- Name
    3rd Monday in February,  !- Start Date
    1,                       !- Duration {days}
    Holiday;                 !- Special Day Type

  RunPeriodControl:SpecialDays,
    Memorial Day,            !- Name
    Last Monday in May,      !- Start Date
    1,                       !- Duration {days}
    Holiday;                 !- Special Day Type

  RunPeriodControl:SpecialDays,
    Labor Day,               !- Name
    1st Monday in September, !- Start Date
    1,                       !- Duration {days}
    Holiday;                 !- Special Day Type

  RunPeriodControl:SpecialDays,
    Columbus Day,            !- Name
    2nd Monday in October,   !- Start Date
    1,                       !- Duration {days}
    Holiday;                 !- Special Day Type

  RunPeriodControl:SpecialDays,
    Thanksgiving,            !- Name
    4th Thursday in November,!- Start Date
    1,                       !- Duration {days}
    Holiday;                 !- Special Day Type

!-   ===========  ALL OBJECTS IN CLASS: RUNPERIODCONTROL:DAYLIGHTSAVINGTIME ===========

  RunPeriodControl:DaylightSavingTime,
    2nd Sunday in March,     !- Start Date
    1st Sunday in November;  !- End Date

!-   ===========  ALL OBJECTS IN CLASS: SITE:GROUNDTEMPERATURE:FCFACTORMETHOD ===========

  Site:GroundTemperature:FCfactorMethod,7.1,3.0,-1.0,0.8,-0.2,4.8,6.1,13.7,22.2,22.7,21.7,18.5;

!-   ===========  ALL OBJECTS IN CLASS: SITE:WATERMAINSTEMPERATURE ===========

  Site:WaterMainsTemperature,
    Correlation,             !- Calculation Method
    ,                        !- Temperature Schedule Name
    9.95,                    !- Annual Average Outdoor Air Temperature {C}
    23.7;                    !- Maximum Difference In Monthly Average Outdoor Air Temperatures {deltaC}

!-   ===========  ALL OBJECTS IN CLASS: SCHEDULETYPELIMITS ===========

  ScheduleTypeLimits,
    Any Number;              !- Name

  ScheduleTypeLimits,
    Fraction,                !- Name
    0.0,                     !- Lower Limit Value
    1.0,                     !- Upper Limit Value
    Continuous;              !- Numeric Type

  ScheduleTypeLimits,
    Temperature,             !- Name
    -60,                     !- Lower Limit Value
    200,                     !- Upper Limit Value
    Continuous;              !- Numeric Type

  ScheduleTypeLimits,
    On/Off,                  !- Name
    0,                       !- Lower Limit Value
    1,                       !- Upper Limit Value
    Discrete;                !- Numeric Type

  ScheduleTypeLimits,
    Control Type,            !- Name
    0,                       !- Lower Limit Value
    4,                       !- Upper Limit Value
    Discrete;                !- Numeric Type

  ScheduleTypeLimits,
    Humidity,                !- Name
    10,                      !- Lower Limit Value
    90,                      !- Upper Limit Value
    Continuous;              !- Numeric Type

  ScheduleTypeLimits,
    Number;                  !- Name

!-   ===========  ALL OBJECTS IN CLASS: SCHEDULE:COMPACT ===========

  Schedule:Compact,
    DataCenter_ExtraElecHeatC_Sch,  !- Name
    On/Off,                  !- Schedule Type Limits Name
    Through: 12/31,          !- Field 1
    For: AllDays,            !- Field 2
    Until: 24:00,0;          !- Field 3

  Schedule:Compact,
    DataCenter_ExtraWaterHeatC_Sch,  !- Name
    On/Off,                  !- Schedule Type Limits Name
    Through: 12/31,          !- Field 1
    For: AllDays,            !- Field 2
    Until: 24:00,1;          !- Field 3

  Schedule:Compact,
    Exterior_lighting_schedule_a,  !- Name
    fraction,                !- Schedule Type Limits Name
    Through:12/31,           !- Field 1
    For:AllDays,             !- Field 2
    Until: 06:00,0,          !- Field 3
    Until: 24:00,1;          !- Field 5

  Schedule:Compact,
    Exterior_lighting_schedule_b,  !- Name
    fraction,                !- Schedule Type Limits Name
    Through:12/31,           !- Field 1
    For:AllDays,             !- Field 2
    Until: 06:00,0.7,        !- Field 3
    Until: 24:00,1;          !- Field 5

  Schedule:Compact,
    Exterior_lighting_schedule_a_IECC2015,  !- Name
    fraction,                !- Schedule Type Limits Name
    Through:12/31,           !- Field 1
    For:Weekdays SummerDesignDay, !- Field 2
    Until: 07:00,0,          !- Field 3
    Until: 22:00,1,          !- Field 5
    Until: 24:00,0,          !- Field 7
    For:Saturdays,           !- Field 9
    Until: 07:00,0,          !- Field 10
    Until: 18:00,1,          !- Field 12
    Until: 24:00,0,          !- Field 14
    For:AllOtherDays,        !- Field 16
    Until: 24:00,0;          !- Field 17

  Schedule:Compact,
    Exterior_lighting_schedule_b_2016,  !- Name
    fraction,                !- Schedule Type Limits Name
    Through:12/31,           !- Field 1
    For:AllDays,             !- Field 2
    Until: 06:00,0.5,        !- Field 3
    Until: 24:00,1;          !- Field 5

  Schedule:Compact,
    Exterior_lighting_schedule_c_2016,  !- Name
    fraction,                !- Schedule Type Limits Name
    Through:12/31,           !- Field 1
    For:AllDays,             !- Field 2
    Until: 06:00,0.5,        !- Field 3
    Until: 19:00,1,          !- Field 5
    Until: 24:00,0.5;        !- Field 7

  Schedule:Compact,
    Hours_of_operation,      !- Name
    on/off,                  !- Schedule Type Limits Name
    Through: 12/31,          !- Field 1
    For: Weekdays SummerDesignDay, !- Field 2
    Until: 06:00,0.0,        !- Field 3
    Until: 22:00,1.0,        !- Field 5
    Until: 24:00,0.0,        !- Field 7
    For: Saturday WinterDesignDay, !- Field 9
    Until: 06:00,0.0,        !- Field 10
    Until: 18:00,1.0,        !- Field 12
    Until: 24:00,0.0,        !- Field 14
    For: Sunday Holidays AllOtherDays, !- Field 16
    Until: 24:00,0.0;        !- Field 17

  Schedule:Compact,
    ALWAYS_ON,               !- Name
    Fraction,                !- Schedule Type Limits Name
    Through: 12/31,          !- Field 1
    For: AllDays,            !- Field 2
    Until: 24:00,1.0;        !- Field 3

  Schedule:Compact,
    Exterior_Lgt_ALWAYS_ON,  !- Name
    Fraction,                !- Schedule Type Limits Name
    Through: 12/31,          !- Field 1
    For: AllDays,            !- Field 2
    Until: 24:00,1;          !- Field 3

  Schedule:Compact,
    Exterior_Lgt_189_1,      !- Name
    Fraction,                !- Schedule Type Limits Name
    Through:12/31,           !- Field 1
    For:Weekdays,            !- Field 2
    Until:  9:00,0.5,        !- Field 3
    Until: 24:00,1.0,        !- Field 5
    For:Saturday,            !- Field 7
    Until:  9:00,0.5,        !- Field 8
    Until: 19:00,1.0,        !- Field 10
    Until: 24:00,0.5,        !- Field 12
    FOR: Sunday Holidays AllOtherDays, !- Field 14
    Until:  9:00,0.5,        !- Field 15
    Until: 18:00,1.0,        !- Field 17
    Until: 24:00,0.5;        !- Field 19

  Schedule:Compact,
    ALWAYS_OFF,              !- Name
    Fraction,                !- Schedule Type Limits Name
    Through: 12/31,          !- Field 1
    For: AllDays,            !- Field 2
    Until: 24:00,0.0;        !- Field 3

  Schedule:Compact,
    HVACOperationSchd,       !- Name
    on/off,                  !- Schedule Type Limits Name
    Through: 12/31,          !- Field 1
    For: Weekdays SummerDesignDay, !- Field 2
    Until: 06:00,0.0,        !- Field 3
    Until: 22:00,1.0,        !- Field 5
    Until: 24:00,0.0,        !- Field 7
    For: Saturday WinterDesignDay, !- Field 9
    Until: 06:00,0.0,        !- Field 10
    Until: 18:00,1.0,        !- Field 12
    Until: 24:00,0.0,        !- Field 14
    For: Sunday Holidays AllOtherDays, !- Field 16
    Until: 24:00,0.0;        !- Field 17

                             !- Field 12
                             !- Field 16
                             !- Field 18
                             !- Field 20
                             !- Field 22
                             !- Field 32
                             !- Field 34
                             !- Field 36
                             !- Field 46

  Schedule:Compact,
    BLDG_LIGHT_SCH,          !- Name
    Fraction,                !- Schedule Type Limits Name
    Through: 12/31,          !- Field 1
    For: Weekdays,           !- Field 2
    Until: 5:00,0.05,        !- Field 3
    Until: 6:00,0.1,         !- Field 5
    Until: 7:00,0.090560114, !- Field 7
    Until: 8:00,0.271680342, !- Field 9
    Until: 17:00,0.815041026,!- Field 11
    Until: 18:00,0.45280057, !- Field 13
    Until: 20:00,0.271680342,!- Field 15
    Until: 22:00,0.181120228,!- Field 17
    Until: 23:00,0.090560114,!- Field 19
    Until: 24:00,0.045280057,!- Field 21
    For: SummerDesignDay,    !- Field 23
    Until: 24:00,1,          !- Field 24
    For: Saturday,           !- Field 26
    Until: 6:00,0.05,        !- Field 27
    Until: 8:00,0.090560114, !- Field 29
    Until: 12:00,0.271680342,!- Field 31
    Until: 17:00,0.135840171,!- Field 33
    Until: 19:00,0.045280057,!- Field 35
    Until: 24:00,0.05,       !- Field 37
    For: WinterDesignDay,    !- Field 39
    Until: 24:00,0,          !- Field 40
    For: Sunday Holidays AllOtherDays, !- Field 42
    Until: 6:00,0.05,        !- Field 43
    Until: 18:00,0.045280057,!- Field 45
    Until: 24:00,0.05;       !- Field 47

  Schedule:Compact,
    EXTERIOR_LIGHT_SCH,      !- Name
    Fraction,                !- Schedule Type Limits Name
    Through: 12/31,          !- Field 1
    For: AllDays,            !- Field 2
    Until: 07:00,1.0,        !- Field 3
    Until: 19:00,0.0,        !- Field 5
    Until: 24:00,1.0;        !- Field 7

                             !- Field 4
                             !- Field 6
                             !- Field 8
                             !- Field 10
                             !- Field 12
                             !- Field 14
                             !- Field 16
                             !- Field 22
                             !- Field 24
                             !- Field 26
                             !- Field 28
                             !- Field 30
                             !- Field 32
                             !- Field 38
                             !- Field 40

  Schedule:Compact,
    BLDG_EQUIP_SCH,          !- Name
    Fraction,                !- Schedule Type Limits Name
    Through: 12/31,          !- Field 1
    For: Weekdays,           !- Field 2
    Until: 06:00,0.2947764352, !- Field 3
    Until: 08:00,0.3796573052, !- Field 5
    Until: 12:00,0.8542289367, !- Field 7
    Until: 13:00,0.7593146104, !- Field 9
    Until: 17:00,0.8542289367, !- Field 11
    Until: 18:00,0.4745716315, !- Field 13
    Until: 24:00,0.3796573052, !- Field 15
    For: SummerDesignDay,    !- Field 17
    Until: 24:00,1.0,        !- Field 18
    For: Saturday,           !- Field 20
    Until: 06:00,0.2210823264, !- Field 21
    Until: 08:00,0.3796573052, !- Field 23
    Until: 12:00,0.4745716315, !- Field 25
    Until: 17:00,0.33220014205, !- Field 27
    Until: 19:00,0.2847429789, !- Field 29
    Until: 24:00,0.2210823264, !- Field 31
    For: WinterDesignDay,    !- Field 33
    Until: 24:00,0.0,        !- Field 34
    For: Sunday Holidays AllOtherDays, !- Field 36
    Until: 06:00,0.2210823264, !- Field 37
    Until: 18:00,0.2847429789, !- Field 39
    Until: 24:00,0.2210823264; !- Field 41

                             !- Field 42

  Schedule:Compact,
    DataCenter_EQUIP_SCH,    !- Name
    Fraction,                !- Schedule Type Limits Name
    Through: 1/31,           !- Field 1
    For: SummerDesignDay,    !- Field 2
    Until: 24:00,1.0,        !- Field 3
    For: WinterDesignDay,    !- Field 5
    Until: 24:00,0.25,       !- Field 6
    For: AllOtherDays,       !- Field 8
    Until: 24:00,0.25,       !- Field 9
    Through: 2/28,           !- Field 11
    For: SummerDesignDay,    !- Field 12
    Until: 24:00,1.0,        !- Field 13
    For: WinterDesignDay,    !- Field 15
    Until: 24:00,0.25,       !- Field 16
    For: AllOtherDays,       !- Field 18
    Until: 24:00,0.5,        !- Field 19
    Through: 3/31,           !- Field 21
    For: SummerDesignDay,    !- Field 22
    Until: 24:00,1.0,        !- Field 23
    For: WinterDesignDay,    !- Field 25
    Until: 24:00,0.25,       !- Field 26
    For: AllOtherDays,       !- Field 28
    Until: 24:00,0.75,       !- Field 29
    Through: 4/30,           !- Field 31
    For: SummerDesignDay,    !- Field 32
    Until: 24:00,1.0,        !- Field 33
    For: WinterDesignDay,    !- Field 35
    Until: 24:00,0.25,       !- Field 36
    For: AllOtherDays,       !- Field 38
    Until: 24:00,1,          !- Field 39
    Through: 5/31,           !- Field 41
    For: SummerDesignDay,    !- Field 42
    Until: 24:00,1.0,        !- Field 43
    For: WinterDesignDay,    !- Field 45
    Until: 24:00,0.25,       !- Field 46
    For: AllOtherDays,       !- Field 48
    Until: 24:00,0.25,       !- Field 49
    Through: 6/30,           !- Field 51
    For: SummerDesignDay,    !- Field 52
    Until: 24:00,1.0,        !- Field 53
    For: WinterDesignDay,    !- Field 55
    Until: 24:00,0.25,       !- Field 56
    For: AllOtherDays,       !- Field 58
    Until: 24:00,0.5,        !- Field 59
    Through: 7/31,           !- Field 61
    For: SummerDesignDay,    !- Field 62
    Until: 24:00,1.0,        !- Field 63
    For: WinterDesignDay,    !- Field 65
    Until: 24:00,0.25,       !- Field 66
    For: AllOtherDays,       !- Field 68
    Until: 24:00,0.75,       !- Field 69
    Through: 8/31,           !- Field 71
    For: SummerDesignDay,    !- Field 72
    Until: 24:00,1.0,        !- Field 73
    For: WinterDesignDay,    !- Field 75
    Until: 24:00,0.25,       !- Field 76
    For: AllOtherDays,       !- Field 78
    Until: 24:00,1,          !- Field 79
    Through: 9/30,           !- Field 81
    For: SummerDesignDay,    !- Field 82
    Until: 24:00,1.0,        !- Field 83
    For: WinterDesignDay,    !- Field 85
    Until: 24:00,0.25,       !- Field 86
    For: AllOtherDays,       !- Field 88
    Until: 24:00,0.25,       !- Field 89
    Through: 10/31,          !- Field 91
    For: SummerDesignDay,    !- Field 92
    Until: 24:00,1.0,        !- Field 93
    For: WinterDesignDay,    !- Field 95
    Until: 24:00,0.25,       !- Field 96
    For: AllOtherDays,       !- Field 98
    Until: 24:00,0.5,        !- Field 99
    Through: 11/30,          !- Field 101
    For: SummerDesignDay,    !- Field 102
    Until: 24:00,1.0,        !- Field 103
    For: WinterDesignDay,    !- Field 105
    Until: 24:00,0.25,       !- Field 106
    For: AllOtherDays,       !- Field 108
    Until: 24:00,0.75,       !- Field 109
    Through: 12/31,          !- Field 111
    For: SummerDesignDay,    !- Field 112
    Until: 24:00,1.0,        !- Field 113
    For: WinterDesignDay,    !- Field 115
    Until: 24:00,0.25,       !- Field 116
    For: AllOtherDays,       !- Field 118
    Until: 24:00,1;          !- Field 119

                             !- Field 23

  Schedule:Compact,
    BLDG_OCC_SCH,            !- Name
    Fraction,                !- Schedule Type Limits Name
    Through: 12/31,          !- Field 1
    For: Weekdays,           !- Field 2
    Until: 06:00,0.0,        !- Field 3
    Until: 07:00,0.1,        !- Field 5
    Until: 08:00,0.2,        !- Field 7
    Until: 12:00,0.95,       !- Field 9
    Until: 13:00,0.5,        !- Field 11
    Until: 17:00,0.95,       !- Field 13
    Until: 18:00,0.3,        !- Field 15
    Until: 22:00,0.1,        !- Field 17
    Until: 24:00,0.05,       !- Field 19
    For: SummerDesignDay,    !- Field 21
    Until: 06:00,0.000000001,!- Field 22
    Until: 22:00,1.0,        !- Field 24
    Until: 24:00,0.05,       !- Field 26
    For: Saturday,           !- Field 28
    Until: 06:00,0.0,        !- Field 29
    Until: 08:00,0.1,        !- Field 31
    Until: 12:00,0.3,        !- Field 33
    Until: 17:00,0.1,        !- Field 35
    Until: 19:00,0.05,       !- Field 37
    Until: 24:00,0.0,        !- Field 39
    For: WinterDesignDay,    !- Field 41
    Until: 24:00,0.0,        !- Field 42
    For: Sunday Holidays AllOtherDays, !- Field 44
    Until: 06:00,0.0,        !- Field 45
    Until: 18:00,0.05,       !- Field 47
    Until: 24:00,0.0;        !- Field 49

                             !- Field 102

  Schedule:Compact,
    BLDG_OCC_SCH_w_SB,       !- Name
    Fraction,                !- Schedule Type Limits Name
    Through: 12/31,          !- Field 1
    For: Weekdays,           !- Field 2
    Until: 01:00,0,          !- Field 3
    Until: 02:00,0,          !- Field 5
    Until: 03:00,0,          !- Field 7
    Until: 04:00,0,          !- Field 9
    Until: 05:00,0,          !- Field 11
    Until: 06:00,0,          !- Field 13
    Until: 07:00,0.1,        !- Field 15
    Until: 08:00,0.2,        !- Field 17
    Until: 09:00,0.95,       !- Field 19
    Until: 10:00,0.95,       !- Field 21
    Until: 11:00,0,          !- Field 23
    Until: 12:00,0.95,       !- Field 25
    Until: 13:00,0,          !- Field 27
    Until: 14:00,0.95,       !- Field 29
    Until: 15:00,0,          !- Field 31
    Until: 16:00,0.95,       !- Field 33
    Until: 17:00,0.95,       !- Field 35
    Until: 18:00,0.3,        !- Field 37
    Until: 19:00,0.1,        !- Field 39
    Until: 20:00,0.1,        !- Field 41
    Until: 21:00,0.1,        !- Field 43
    Until: 22:00,0.1,        !- Field 45
    Until: 23:00,0.05,       !- Field 47
    Until: 24:00,0.05,       !- Field 49
    For: Saturday,           !- Field 51
    Until: 01:00,0,          !- Field 52
    Until: 02:00,0,          !- Field 54
    Until: 03:00,0,          !- Field 56
    Until: 04:00,0,          !- Field 58
    Until: 05:00,0,          !- Field 60
    Until: 06:00,0,          !- Field 62
    Until: 07:00,0.1,        !- Field 64
    Until: 08:00,0.1,        !- Field 66
    Until: 09:00,0.3,        !- Field 68
    Until: 10:00,0.3,        !- Field 70
    Until: 11:00,0,          !- Field 72
    Until: 12:00,0.3,        !- Field 74
    Until: 13:00,0,          !- Field 76
    Until: 14:00,0.1,        !- Field 78
    Until: 15:00,0,          !- Field 80
    Until: 16:00,0.1,        !- Field 82
    Until: 17:00,0.1,        !- Field 84
    Until: 18:00,0.05,       !- Field 86
    Until: 19:00,0.05,       !- Field 88
    Until: 20:00,0,          !- Field 90
    Until: 21:00,0,          !- Field 92
    Until: 22:00,0,          !- Field 94
    Until: 23:00,0,          !- Field 96
    Until: 24:00,0,          !- Field 98
    For: SummerDesignDay,    !- Field 100
    Until: 06:00,0.000000001,!- Field 101
    Until: 22:00,1.0,        !- Field 103
    Until: 24:00,0.05,       !- Field 105
    For: WinterDesignDay,    !- Field 107
    Until: 24:00,0.0,        !- Field 108
    For:Sunday Holidays AllOtherDays, !- Field 110
    Until: 06:00,0.0,        !- Field 111
    Until: 18:00,0.05,       !- Field 113
    Until: 24:00,0.0;        !- Field 115

                             !- Field 24
                             !- Field 28
                             !- Field 32
                             !- Field 73
                             !- Field 77
                             !- Field 81
                             !- Field 102

  Schedule:Compact,
    BLDG_OCC_SCH_wo_SB,      !- Name
    Fraction,                !- Schedule Type Limits Name
    Through: 12/31,          !- Field 1
    For: Weekdays,           !- Field 2
    Until: 01:00,0,          !- Field 3
    Until: 02:00,0,          !- Field 5
    Until: 03:00,0,          !- Field 7
    Until: 04:00,0,          !- Field 9
    Until: 05:00,0,          !- Field 11
    Until: 06:00,0,          !- Field 13
    Until: 07:00,0.1,        !- Field 15
    Until: 08:00,0.2,        !- Field 17
    Until: 09:00,0.95,       !- Field 19
    Until: 10:00,0.95,       !- Field 21
    Until: 11:00,0.993313428402066, !- Field 23
    Until: 12:00,0.95,       !- Field 25
    Until: 13:00,0.522796541264245, !- Field 27
    Until: 14:00,0.95,       !- Field 29
    Until: 15:00,0.993313428402066, !- Field 31
    Until: 16:00,0.95,       !- Field 33
    Until: 17:00,0.95,       !- Field 35
    Until: 18:00,0.3,        !- Field 37
    Until: 19:00,0.1,        !- Field 39
    Until: 20:00,0.1,        !- Field 41