!-Generator IDFEditor 1.51
!-Option SortedOrder UseSpecialFormat
!-NOTE: All comments with '!-' are ignored by the IDFEditor and are generated automatically.
!-      Use '!' comments if they need to be retained when using the IDFEditor.
!-   ===========  ALL OBJECTS IN CLASS: VERSION ===========

  Version,24.1;

!-   ===========  ALL OBJECTS IN CLASS: SIMULATIONCONTROL ===========

  SimulationControl,
    Yes,                     !- Do Zone Sizing Calculation
    Yes,                     !- Do System Sizing Calculation
    Yes,                     !- Do Plant Sizing Calculation
    No,                      !- Run Simulation for Sizing Periods
    YES,                     !- Run Simulation for Weather File Run Periods
    No,                      !- Do HVAC Sizing Simulation for Sizing Periods
    1;                       !- Maximum Number of HVAC Sizing Simulation Passes

!-   ===========  ALL OBJECTS IN CLASS: BUILDING ===========

  Building,
    RetailStandalone,        !- Name
    0.0000,                  !- North Axis {deg}
    City,                    !- Terrain
    0.0400,                  !- Loads Convergence Tolerance Value {W}
    0.2000,                  !- Temperature Convergence Tolerance Value {deltaC}
    FullInteriorAndExterior, !- Solar Distribution
    15,                      !- Maximum Number of Warmup Days
    6;                       !- Minimum Number of Warmup Days

!-   ===========  ALL OBJECTS IN CLASS: SHADOWCALCULATION ===========

  ShadowCalculation,
    PolygonClipping,         !- Shading Calculation Method
    Periodic,                !- Shading Calculation Update Frequency Method
    30,                      !- Shading Calculation Update Frequency
    200;                     !- Maximum Figures in Shadow Overlap Calculations

!-   ===========  ALL OBJECTS IN CLASS: SURFACECONVECTIONALGORITHM:INSIDE ===========

  SurfaceConvectionAlgorithm:Inside,TARP;

!-   ===========  ALL OBJECTS IN CLASS: SURFACECONVECTIONALGORITHM:OUTSIDE ===========

  SurfaceConvectionAlgorithm:Outside,TARP;

!-   ===========  ALL OBJECTS IN CLASS: HEATBALANCEALGORITHM ===========

  HeatBalanceAlgorithm,ConductionTransferFunction,200.0000;

!-   ===========  ALL OBJECTS IN CLASS: TIMESTEP ===========

  Timestep,4;

!-   ===========  ALL OBJECTS IN CLASS: CONVERGENCELIMITS ===========

  ConvergenceLimits,
    15,                      !- Minimum System Timestep {minutes}
    5;                       !- Maximum HVAC Iterations

!-   ===========  ALL OBJECTS IN CLASS: SITE:LOCATION ===========

  Site:Location,
    Denver-Aurora-Buckley.AFB_CO_USA WMO=724695,  !- Name
    39.72,                   !- Latitude {deg}
    -104.75,                 !- Longitude {deg}
    -7.00,                   !- Time Zone {hr}
    1726.00;                 !- Elevation {m}

!-   ===========  ALL OBJECTS IN CLASS: SIZINGPERIOD:DESIGNDAY ===========

  SizingPeriod:DesignDay,
    Denver-Aurora-Buckley.AFB_CO_USA Ann Htg 99.6% Condns DB,  !- Name
    12,                      !- Month
    21,                      !- Day of Month
    WinterDesignDay,         !- Day Type
    -17.9,                   !- Maximum Dry-Bulb Temperature {C}
    0.0,                     !- Daily Dry-Bulb Temperature Range {deltaC}
    DefaultMultipliers,      !- Dry-Bulb Temperature Range Modifier Type
    ,                        !- Dry-Bulb Temperature Range Modifier Day Schedule Name
    Wetbulb,                 !- Humidity Condition Type
    -17.9,                   !- Wetbulb or DewPoint at Maximum Dry-Bulb {C}
    ,                        !- Humidity Condition Day Schedule Name
    ,                        !- Humidity Ratio at Maximum Dry-Bulb {kgWater/kgDryAir}
    ,                        !- Enthalpy at Maximum Dry-Bulb {J/kg}
    ,                        !- Daily Wet-Bulb Temperature Range {deltaC}
    82237.,                  !- Barometric Pressure {Pa}
    2.5,                     !- Wind Speed {m/s}
    180,                     !- Wind Direction {deg}
    No,                      !- Rain Indicator
    No,                      !- Snow Indicator
    No,                      !- Daylight Saving Time Indicator
    ASHRAEClearSky,          !- Solar Model Indicator
    ,                        !- Beam Solar Day Schedule Name
    ,                        !- Diffuse Solar Day Schedule Name
    ,                        !- ASHRAE Clear Sky Optical Depth for Beam Irradiance (taub) {dimensionless}
    ,                        !- ASHRAE Clear Sky Optical Depth for Diffuse Irradiance (taud) {dimensionless}
    0.00;                    !- Sky Clearness

  SizingPeriod:DesignDay,
    Denver-Aurora-Buckley.AFB_CO_USA Ann Clg .4% Condns DB=>MWB,  !- Name
    7,                       !- Month
    21,                      !- Day of Month
    SummerDesignDay,         !- Day Type
    33.9,                    !- Maximum Dry-Bulb Temperature {C}
    14.8,                    !- Daily Dry-Bulb Temperature Range {deltaC}
    DefaultMultipliers,      !- Dry-Bulb Temperature Range Modifier Type
    ,                        !- Dry-Bulb Temperature Range Modifier Day Schedule Name
    Wetbulb,                 !- Humidity Condition Type
    15,                      !- Wetbulb or DewPoint at Maximum Dry-Bulb {C}
    ,                        !- Humidity Condition Day Schedule Name
    ,                        !- Humidity Ratio at Maximum Dry-Bulb {kgWater/kgDryAir}
    ,                        !- Enthalpy at Maximum Dry-Bulb {J/kg}
    ,                        !- Daily Wet-Bulb Temperature Range {deltaC}
    82237.,                  !- Barometric Pressure {Pa}
    3.6,                     !- Wind Speed {m/s}
    30,                      !- Wind Direction {deg}
    No,                      !- Rain Indicator
    No,                      !- Snow Indicator
    No,                      !- Daylight Saving Time Indicator
    ASHRAETau,               !- Solar Model Indicator
    ,                        !- Beam Solar Day Schedule Name
    ,                        !- Diffuse Solar Day Schedule Name
    0.423,                   !- ASHRAE Clear Sky Optical Depth for Beam Irradiance (taub) {dimensionless}
    2.020;                   !- ASHRAE Clear Sky Optical Depth for Diffuse Irradiance (taud) {dimensionless}

!-   ===========  ALL OBJECTS IN CLASS: RUNPERIOD ===========

  RunPeriod,
    RUNPERIOD 1,             !- Name
    1,                       !- Begin Month
    1,                       !- Begin Day of Month
    ,                        !- Begin Year
    1,                       !- End Month
    31,                      !- End Day of Month
    ,                        !- End Year
    Sunday,                  !- Day of Week for Start Day
    No,                      !- Use Weather File Holidays and Special Days
    No,                      !- Use Weather File Daylight Saving Period
    No,                      !- Apply Weekend Holiday Rule
    Yes,                     !- Use Weather File Rain Indicators
    Yes;                     !- Use Weather File Snow Indicators

  RunPeriod,
    RUNPERIOD 2,             !- Name
    4,                       !- Begin Month
    1,                       !- Begin Day of Month
    ,                        !- Begin Year
    4,                       !- End Month
    30,                      !- End Day of Month
    ,                        !- End Year
    Sunday,                  !- Day of Week for Start Day
    No,                      !- Use Weather File Holidays and Special Days
    No,                      !- Use Weather File Daylight Saving Period
    No,                      !- Apply Weekend Holiday Rule
    Yes,                     !- Use Weather File Rain Indicators
    Yes;                     !- Use Weather File Snow Indicators

  RunPeriod,
    RUNPERIOD 3,             !- Name
    7,                       !- Begin Month
    1,                       !- Begin Day of Month
    ,                        !- Begin Year
    7,                       !- End Month
    31,                      !- End Day of Month
    ,                        !- End Year
    Sunday,                  !- Day of Week for Start Day
    No,                      !- Use Weather File Holidays and Special Days
    No,                      !- Use Weather File Daylight Saving Period
    No,                      !- Apply Weekend Holiday Rule
    Yes,                     !- Use Weather File Rain Indicators
    Yes;                     !- Use Weather File Snow Indicators

!-   ===========  ALL OBJECTS IN CLASS: RUNPERIODCONTROL:SPECIALDAYS ===========

  RunPeriodControl:SpecialDays,
    New Years Day,           !- Name
    January 1,               !- Start Date
    1,                       !- Duration {days}
    Holiday;                 !- Special Day Type

  RunPeriodControl:SpecialDays,
    Veterans Day,            !- Name
    November 11,             !- Start Date
    1,                       !- Duration {days}
    Holiday;                 !- Special Day Type

  RunPeriodControl:SpecialDays,
    Christmas,               !- Name
    December 25,             !- Start Date
    1,                       !- Duration {days}
    Holiday;                 !- Special Day Type

  RunPeriodControl:SpecialDays,
    Independence Day,        !- Name
    July 4,                  !- Start Date
    1,                       !- Duration {days}
    Holiday;                 !- Special Day Type

  RunPeriodControl:SpecialDays,
    MLK Day,                 !- Name
    3rd Monday in January,   !- Start Date
    1,                       !- Duration {days}
    Holiday;                 !- Special Day Type

  RunPeriodControl:SpecialDays,
    Presidents Day,          !- Name
    3rd Monday in February,  !- Start Date
    1,                       !- Duration {days}
    Holiday;                 !- Special Day Type

  RunPeriodControl:SpecialDays,
    Memorial Day,            !- Name
    Last Monday in May,      !- Start Date
    1,                       !- Duration {days}
    Holiday;                 !- Special Day Type

  RunPeriodControl:SpecialDays,
    Labor Day,               !- Name
    1st Monday in September, !- Start Date
    1,                       !- Duration {days}
    Holiday;                 !- Special Day Type

  RunPeriodControl:SpecialDays,
    Columbus Day,            !- Name
    2nd Monday in October,   !- Start Date
    1,                       !- Duration {days}
    Holiday;                 !- Special Day Type

  RunPeriodControl:SpecialDays,
    Thanksgiving,            !- Name
    4th Thursday in November,!- Start Date
    1,                       !- Duration {days}
    Holiday;                 !- Special Day Type

!-   ===========  ALL OBJECTS IN CLASS: RUNPERIODCONTROL:DAYLIGHTSAVINGTIME ===========

  RunPeriodControl:DaylightSavingTime,
    2nd Sunday in March,     !- Start Date
    1st Sunday in November;  !- End Date

!-   ===========  ALL OBJECTS IN CLASS: SITE:GROUNDTEMPERATURE:FCFACTORMETHOD ===========

  Site:GroundTemperature:FCfactorMethod,7.1,3.0,-1.0,0.8,-0.2,4.8,6.1,13.7,22.2,22.7,21.7,18.5;

!-   ===========  ALL OBJECTS IN CLASS: SITE:WATERMAINSTEMPERATURE ===========

  Site:WaterMainsTemperature,
    CORRELATION,             !- Calculation Method
    ,                        !- Temperature Schedule Name
    9.95,                    !- Annual Average Outdoor Air Temperature {C}
    23.7;                    !- Maximum Difference In Monthly Average Outdoor Air Temperatures {deltaC}

!-   ===========  ALL OBJECTS IN CLASS: SCHEDULETYPELIMITS ===========

  ScheduleTypeLimits,
    Any Number;              !- Name

  ScheduleTypeLimits,
    Fraction,                !- Name
    0.0,                     !- Lower Limit Value
    1.0,                     !- Upper Limit Value
    CONTINUOUS;              !- Numeric Type

  ScheduleTypeLimits,
    Temperature,             !- Name
    -60,                     !- Lower Limit Value
    200,                     !- Upper Limit Value
    CONTINUOUS;              !- Numeric Type

  ScheduleTypeLimits,
    On/Off,                  !- Name
    0,                       !- Lower Limit Value
    1,                       !- Upper Limit Value
    DISCRETE;                !- Numeric Type

  ScheduleTypeLimits,
    Control Type,            !- Name
    0,                       !- Lower Limit Value
    4,                       !- Upper Limit Value
    DISCRETE;                !- Numeric Type

  ScheduleTypeLimits,
    Humidity,                !- Name
    10,                      !- Lower Limit Value
    90,                      !- Upper Limit Value
    CONTINUOUS;              !- Numeric Type

  ScheduleTypeLimits,
    Number;                  !- Name

!-   ===========  ALL OBJECTS IN CLASS: SCHEDULE:COMPACT ===========

  Schedule:Compact,
    FrontEntry_CoilSched,    !- Name
    Fraction,                !- Schedule Type Limits Name
    Through: 12/31,          !- Field 1
    For: AllDays,            !- Field 2
    Until: 24:00,1.0;        !- Field 3

  Schedule:Compact,
    FrontEntry_FanSched,     !- Name
    Fraction,                !- Schedule Type Limits Name
    Through: 12/31,          !- Field 1
    For: AllDays,            !- Field 2
    Until: 24:00,1.0;        !- Field 3

                             !- Field 10
                             !- Field 12
                             !- Field 25
                             !- Field 27
                             !- Field 29
                             !- Field 31
                             !- Field 33
                             !- Field 46
                             !- Field 48
                             !- Field 50
                             !- Field 52
                             !- Field 54

  Schedule:Compact,
    BLDG_LIGHT_BACK_SCH,     !- Name
    Fraction,                !- Schedule Type Limits Name
    Through: 12/31,          !- Field 1
    For: Weekdays,           !- Field 2
    Until: 7:00,0.05,        !- Field 3
    Until: 8:00,0.156409254, !- Field 5
    Until: 9:00,0.312818508, !- Field 7
    Until: 18:00,0.703841643,!- Field 9
    Until: 21:00,0.391023135,!- Field 11
    Until: 22:00,0.2,        !- Field 13
    Until: 24:00,0.05,       !- Field 15
    For: Saturday,           !- Field 17
    Until: 7:00,0.05,        !- Field 18
    Until: 8:00,0.078204627, !- Field 20
    Until: 9:00,0.234613881, !- Field 22
    Until: 10:00,0.469227762,!- Field 24
    Until: 18:00,0.703841643,!- Field 26
    Until: 19:00,0.391023135,!- Field 28
    Until: 21:00,0.234613881,!- Field 30
    Until: 22:00,0.078204627,!- Field 32
    Until: 24:00,0.05,       !- Field 34
    For: SummerDesignDay,    !- Field 36
    Until: 24:00,1,          !- Field 37
    For: WinterDesignDay,    !- Field 39
    Until: 24:00,0,          !- Field 40
    For: Sunday Holidays AllOtherDays, !- Field 42
    Until: 9:00,0.05,        !- Field 43
    Until: 10:00,0.078204627,!- Field 45
    Until: 12:00,0.312818508,!- Field 47
    Until: 17:00,0.469227762,!- Field 49
    Until: 18:00,0.312818508,!- Field 51
    Until: 19:00,0.156409254,!- Field 53
    Until: 24:00,0.05;       !- Field 55

  Schedule:Compact,
    BLDG_LIGHT_CORE_SCH,     !- Name
    Fraction,                !- Schedule Type Limits Name
    Through: 12/31,          !- Field 1
    For: Weekdays,           !- Field 2
    Until: 7:00,0.05,        !- Field 3
    Until: 8:00,0.2,         !- Field 5
    Until: 9:00,0.4,         !- Field 7
    Until: 18:00,0.9,        !- Field 9
    Until: 21:00,0.5,        !- Field 11
    Until: 22:00,0.2,        !- Field 13
    Until: 24:00,0.05,       !- Field 15
    For: Saturday,           !- Field 17
    Until: 7:00,0.05,        !- Field 18
    Until: 8:00,0.1,         !- Field 20
    Until: 9:00,0.3,         !- Field 22
    Until: 10:00,0.6,        !- Field 24
    Until: 18:00,0.9,        !- Field 26
    Until: 19:00,0.5,        !- Field 28
    Until: 21:00,0.3,        !- Field 30
    Until: 22:00,0.1,        !- Field 32
    Until: 24:00,0.05,       !- Field 34
    For: SummerDesignDay,    !- Field 36
    Until: 24:00,1,          !- Field 37
    For: WinterDesignDay,    !- Field 39
    Until: 24:00,0,          !- Field 40
    For: Sunday Holidays AllOtherDays, !- Field 42
    Until: 9:00,0.05,        !- Field 43
    Until: 10:00,0.1,        !- Field 45
    Until: 12:00,0.4,        !- Field 47
    Until: 17:00,0.6,        !- Field 49
    Until: 18:00,0.4,        !- Field 51
    Until: 19:00,0.2,        !- Field 53
    Until: 24:00,0.05;       !- Field 55

  Schedule:Compact,
    BLDG_LIGHT_ENTRY_SCH,    !- Name
    Fraction,                !- Schedule Type Limits Name
    Through: 12/31,          !- Field 1
    For: Weekdays,           !- Field 2
    Until: 7:00,0.05,        !- Field 3
    Until: 8:00,0.164,       !- Field 5
    Until: 9:00,0.328,       !- Field 7
    Until: 18:00,0.738,      !- Field 9
    Until: 21:00,0.41,       !- Field 11
    Until: 22:00,0.2,        !- Field 13
    Until: 24:00,0.05,       !- Field 15
    For: Saturday,           !- Field 17
    Until: 7:00,0.05,        !- Field 18
    Until: 8:00,0.082,       !- Field 20
    Until: 9:00,0.246,       !- Field 22
    Until: 10:00,0.492,      !- Field 24
    Until: 18:00,0.738,      !- Field 26
    Until: 19:00,0.41,       !- Field 28
    Until: 21:00,0.246,      !- Field 30
    Until: 22:00,0.082,      !- Field 32
    Until: 24:00,0.05,       !- Field 34
    For: SummerDesignDay,    !- Field 36
    Until: 24:00,1,          !- Field 37
    For: WinterDesignDay,    !- Field 39
    Until: 24:00,0,          !- Field 40
    For: Sunday Holidays AllOtherDays, !- Field 42
    Until: 9:00,0.05,        !- Field 43
    Until: 10:00,0.082,      !- Field 45
    Until: 12:00,0.328,      !- Field 47
    Until: 17:00,0.492,      !- Field 49
    Until: 18:00,0.328,      !- Field 51
    Until: 19:00,0.164,      !- Field 53
    Until: 24:00,0.05;       !- Field 55

  Schedule:Compact,
    BLDG_LIGHT_FRONT_SCH,    !- Name
    Fraction,                !- Schedule Type Limits Name
    Through: 12/31,          !- Field 1
    For: Weekdays,           !- Field 2
    Until: 7:00,0.05,        !- Field 3
    Until: 8:00,0.19364,     !- Field 5
    Until: 9:00,0.38728,     !- Field 7
    Until: 18:00,0.87138,    !- Field 9
    Until: 21:00,0.4841,     !- Field 11
    Until: 22:00,0.2,        !- Field 13
    Until: 24:00,0.05,       !- Field 15
    For: Saturday,           !- Field 17
    Until: 7:00,0.05,        !- Field 18
    Until: 8:00,0.09682,     !- Field 20
    Until: 9:00,0.29046,     !- Field 22
    Until: 10:00,0.58092,    !- Field 24
    Until: 18:00,0.87138,    !- Field 26
    Until: 19:00,0.4841,     !- Field 28
    Until: 21:00,0.29046,    !- Field 30
    Until: 22:00,0.09682,    !- Field 32
    Until: 24:00,0.05,       !- Field 34
    For: SummerDesignDay,    !- Field 36
    Until: 24:00,1,          !- Field 37
    For: WinterDesignDay,    !- Field 39
    Until: 24:00,0,          !- Field 40
    For: Sunday Holidays AllOtherDays, !- Field 42
    Until: 9:00,0.05,        !- Field 43
    Until: 10:00,0.09682,    !- Field 45
    Until: 12:00,0.38728,    !- Field 47
    Until: 17:00,0.58092,    !- Field 49
    Until: 18:00,0.38728,    !- Field 51
    Until: 19:00,0.19364,    !- Field 53
    Until: 24:00,0.05;       !- Field 55

  Schedule:Compact,
    BLDG_LIGHT_SCH,          !- Name
    Fraction,                !- Schedule Type Limits Name
    Through: 12/31,          !- Field 1
    For: Weekdays,           !- Field 2
    Until: 7:00,0.05,        !- Field 3
    Until: 8:00,0.2,         !- Field 5
    Until: 9:00,0.4,         !- Field 7
    Until: 18:00,0.9,        !- Field 9
    Until: 21:00,0.5,        !- Field 11
    Until: 22:00,0.2,        !- Field 13
    Until: 24:00,0.05,       !- Field 15
    For: Saturday,           !- Field 17
    Until: 7:00,0.05,        !- Field 18
    Until: 8:00,0.1,         !- Field 20
    Until: 9:00,0.3,         !- Field 22
    Until: 10:00,0.6,        !- Field 24
    Until: 18:00,0.9,        !- Field 26
    Until: 19:00,0.5,        !- Field 28
    Until: 21:00,0.3,        !- Field 30
    Until: 22:00,0.1,        !- Field 32
    Until: 24:00,0.05,       !- Field 34
    For: SummerDesignDay,    !- Field 36
    Until: 24:00,1,          !- Field 37
    For: WinterDesignDay,    !- Field 39
    Until: 24:00,0,          !- Field 40
    For: Sunday Holidays AllOtherDays, !- Field 42
    Until: 9:00,0.05,        !- Field 43
    Until: 10:00,0.1,        !- Field 45
    Until: 12:00,0.4,        !- Field 47
    Until: 17:00,0.6,        !- Field 49
    Until: 18:00,0.4,        !- Field 51
    Until: 19:00,0.2,        !- Field 53
    Until: 24:00,0.05;       !- Field 55

  Schedule:Compact,
    BLDG_OCC_SCH,            !- Name
    Fraction,                !- Schedule Type Limits Name
    Through: 12/31,          !- Field 1
    For: Weekdays,           !- Field 2
    Until: 07:00,0.0,        !- Field 3
    Until: 08:00,0.1,        !- Field 5
    Until: 09:00,0.2,        !- Field 7
    Until: 11:00,0.5,        !- Field 9
    Until: 15:00,0.7,        !- Field 11
    Until: 16:00,0.8,        !- Field 13
    Until: 17:00,0.7,        !- Field 15
    Until: 19:00,0.5,        !- Field 17
    Until: 21:00,0.3,        !- Field 19
    Until: 24:00,0.0,        !- Field 21
    For: SummerDesignDay,    !- Field 23
    Until: 24:00,1.0,        !- Field 24
    For: Saturday,           !- Field 26
    Until: 07:00,0.0,        !- Field 27
    Until: 08:00,0.1,        !- Field 29
    Until: 09:00,0.2,        !- Field 31
    Until: 10:00,0.5,        !- Field 33
    Until: 11:00,0.6,        !- Field 35
    Until: 17:00,0.8,        !- Field 37
    Until: 18:00,0.6,        !- Field 39
    Until: 21:00,0.2,        !- Field 41
    Until: 22:00,0.1,        !- Field 43
    Until: 24:00,0.0,        !- Field 45
    For: WinterDesignDay,    !- Field 47
    Until: 24:00,0.0,        !- Field 48
    For: Sunday Holidays AllOtherDays, !- Field 50
    Until: 09:00,0.0,        !- Field 51
    Until: 10:00,0.1,        !- Field 53
    Until: 12:00,0.2,        !- Field 55
    Until: 17:00,0.4,        !- Field 57
    Until: 18:00,0.2,        !- Field 59
    Until: 19:00,0.1,        !- Field 61
    Until: 24:00,0.0;        !- Field 63

                             !- Field 4
                             !- Field 6
                             !- Field 8
                             !- Field 10
                             !- Field 12
                             !- Field 14
                             !- Field 16
                             !- Field 18
                             !- Field 21
                             !- Field 23
                             !- Field 25
                             !- Field 27
                             !- Field 29
                             !- Field 31
                             !- Field 33
                             !- Field 35
                             !- Field 37
                             !- Field 46
                             !- Field 48
                             !- Field 50
                             !- Field 52
                             !- Field 54
                             !- Field 56

  Schedule:Compact,
    BLDG_EQUIP_SCH,          !- Name
    Fraction,                !- Schedule Type Limits Name
    Through: 12/31,          !- Field 1
    For: Weekdays,           !- Field 2
    Until: 07:00,0.1973725624, !- Field 3
    Until: 08:00,0.3988803288, !- Field 5
    Until: 09:00,0.5983204932, !- Field 7
    Until: 19:00,0.8974807398, !- Field 9
    Until: 20:00,0.6980405754, !- Field 11
    Until: 21:00,0.6980405754, !- Field 13
    Until: 22:00,0.1973725624, !- Field 15
    Until: 24:00,0.1973725624, !- Field 17
    For: Saturday,           !- Field 19
    Until: 07:00,0.1480294218, !- Field 20
    Until: 08:00,0.2991602466, !- Field 22
    Until: 09:00,0.498600411,!- Field 24
    Until: 10:00,0.7977606576, !- Field 26
    Until: 18:00,0.8974807398, !- Field 28
    Until: 19:00,0.6980405754, !- Field 30
    Until: 21:00,0.498600411,!- Field 32
    Until: 22:00,0.2991602466, !- Field 34
    Until: 24:00,0.1480294218, !- Field 36
    For: SummerDesignDay,    !- Field 38
    Until: 24:00,1.0,        !- Field 39
    For: WinterDesignDay,    !- Field 41
    Until: 24:00,0.0,        !- Field 42
    For: Sunday Holidays AllOtherDays, !- Field 44
    Until: 09:00,0.1480294218, !- Field 45
    Until: 10:00,0.2991602466, !- Field 47
    Until: 12:00,0.5983204932, !- Field 49
    Until: 17:00,0.7977606576, !- Field 51
    Until: 18:00,0.5983204932, !- Field 53
    Until: 19:00,0.3988803288, !- Field 55
    Until: 24:00,0.1480294218; !- Field 57

                             !- Field 58

  Schedule:Compact,
    BLDG_ELEVATORS,          !- Name
    Fraction,                !- Schedule Type Limits Name
    Through: 12/31,          !- Field 1
    For: Weekdays SummerDesignDay, !- Field 2
    Until: 07:00,0.0,        !- Field 3
    Until: 08:00,0.12,       !- Field 5
    Until: 09:00,0.22,       !- Field 7
    Until: 10:00,0.64,       !- Field 9
    Until: 11:00,0.74,       !- Field 11
    Until: 12:00,0.68,       !- Field 13
    Until: 13:00,0.68,       !- Field 15
    Until: 14:00,0.71,       !- Field 17
    Until: 15:00,0.72,       !- Field 19
    Until: 16:00,0.72,       !- Field 21
    Until: 17:00,0.73,       !- Field 23
    Until: 18:00,0.68,       !- Field 25
    Until: 19:00,0.68,       !- Field 27
    Until: 20:00,0.58,       !- Field 29
    Until: 21:00,0.54,       !- Field 31
    Until: 22:00,0.00,       !- Field 33
    Until: 24:00,0.00,       !- Field 35
    For: Saturday WinterDesignDay, !- Field 37
    Until: 07:00,0.0,        !- Field 38
    Until: 08:00,0.09,       !- Field 40
    Until: 09:00,0.21,       !- Field 42
    Until: 10:00,0.56,       !- Field 44
    Until: 11:00,0.66,       !- Field 46
    Until: 12:00,0.68,       !- Field 48
    Until: 13:00,0.68,       !- Field 50
    Until: 14:00,0.69,       !- Field 52
    Until: 15:00,0.70,       !- Field 54
    Until: 16:00,0.69,       !- Field 56
    Until: 17:00,0.66,       !- Field 58
    Until: 18:00,0.58,       !- Field 60
    Until: 19:00,0.47,       !- Field 62
    Until: 20:00,0.43,       !- Field 64
    Until: 21:00,0.43,       !- Field 66
    Until: 22:00,0.08,       !- Field 68
    Until: 24:00,0.00,       !- Field 70
    For: Sunday Holidays AllOtherDays, !- Field 72
    Until: 09:00,0.00,       !- Field 73
    Until: 10:00,0.11,       !- Field 75
    Until: 11:00,0.13,       !- Field 77
    Until: 12:00,0.35,       !- Field 79
    Until: 13:00,0.37,       !- Field 81
    Until: 14:00,0.37,       !- Field 83
    Until: 15:00,0.39,       !- Field 85
    Until: 16:00,0.41,       !- Field 87
    Until: 17:00,0.38,       !- Field 89
    Until: 18:00,0.34,       !- Field 91
    Until: 19:00,0.03,       !- Field 93
    Until: 24:00,0.00;       !- Field 95

  Schedule:Compact,
    INFIL_SCH,               !- Name
    fraction,                !- Schedule Type Limits Name
    Through: 12/31,          !- Field 1
    For: Weekdays SummerDesignDay, !- Field 2
    Until: 06:00,1.0,        !- Field 3
    Until: 21:00,0.0,        !- Field 5
    Until: 24:00,1.0,        !- Field 7
    For: Saturday,           !- Field 9
    Until: 06:00,1.0,        !- Field 10
    Until: 22:00,0.0,        !- Field 12
    Until: 24:00,1.0,        !- Field 14
    For: WinterDesignDay,    !- Field 16
    Until: 24:00,1.0,        !- Field 17
    For: Sunday Holidays AllOtherDays, !- Field 19
    Until: 08:00,1.0,        !- Field 20
    Until: 17:00,0.0,        !- Field 22
    Until: 24:00,1.0;        !- Field 24

  Schedule:Compact,
    INFIL_HALF_ON_SCH,       !- Name
    fraction,                !- Schedule Type Limits Name
    Through: 12/31,          !- Field 1
    For: Weekdays SummerDesignDay, !- Field 2
    Until: 06:00,1.0,        !- Field 3
    Until: 21:00,0.5,        !- Field 5
    Until: 24:00,1.0,        !- Field 7
    For: Saturday,           !- Field 9
    Until: 06:00,1.0,        !- Field 10
    Until: 22:00,0.5,        !- Field 12
    Until: 24:00,1.0,        !- Field 14
    For: WinterDesignDay,    !- Field 16
    Until: 24:00,1.0,        !- Field 17
    For: Sunday Holidays AllOtherDays, !- Field 19
    Until: 08:00,1.0,        !- Field 20
    Until: 17:00,0.5,        !- Field 22
    Until: 24:00,1.0;        !- Field 24

  Schedule:Compact,
    INFIL_Door_Opening_SCH,  !- Name
    fraction,                !- Schedule Type Limits Name
    Through: 12/31,          !- Field 1
    For: AllDays,            !- Field 2
    Until: 08:00,0.0,        !- Field 3
    Until: 12:00,0.131,      !- Field 5
    Until: 18:00,1.0,        !- Field 7
    Until: 20:00,0.131,      !- Field 9
    Until: 24:00,0.0;        !- Field 11

  Schedule:Compact,
    BLDG_SWH_SCH,            !- Name
    Fraction,                !- Schedule Type Limits Name
    Through: 12/31,          !- Field 1
    For: Weekdays SummerDesignDay, !- Field 2
    Until: 01:00,0.00,       !- Field 3
    Until: 03:00,0.00,       !- Field 5
    Until: 07:00,0.00,       !- Field 7
    Until: 08:00,0.15,       !- Field 9
    Until: 09:00,0.23,       !- Field 11
    Until: 10:00,0.32,       !- Field 13
    Until: 11:00,0.41,       !- Field 15
    Until: 12:00,0.57,       !- Field 17
    Until: 13:00,0.62,       !- Field 19
    Until: 14:00,0.61,       !- Field 21
    Until: 15:00,0.5,        !- Field 23
    Until: 16:00,0.45,       !- Field 25
    Until: 17:00,0.46,       !- Field 27
    Until: 18:00,0.47,       !- Field 29
    Until: 19:00,0.42,       !- Field 31
    Until: 20:00,0.34,       !- Field 33
    Until: 21:00,0.33,       !- Field 35
    Until: 22:00,0.00,       !- Field 37
    Until: 23:00,0.00,       !- Field 39
    Until: 24:00,0.00,       !- Field 41
    For: Saturday WinterDesignDay, !- Field 43
    Until: 01:00,0.00,       !- Field 44
    Until: 02:00,0.00,       !- Field 46
    Until: 03:00,0.00,       !- Field 48
    Until: 06:00,0.00,       !- Field 50
    Until: 07:00,0.00,       !- Field 52