!-Generator IDFEditor 1.51
!-Option SortedOrder UseSpecialFormat
!-NOTE: All comments with '!-' are ignored by the IDFEditor and are generated automatically.
!-      Use '!' comments if they need to be retained when using the IDFEditor.
!-   ===========  ALL OBJECTS IN CLASS: VERSION ===========

  Version,24.1;

!-   ===========  ALL OBJECTS IN CLASS: SIMULATIONCONTROL ===========

  SimulationControl,
    Yes,                     !- Do Zone Sizing Calculation
    Yes,                     !- Do System Sizing Calculation
    Yes,                     !- Do Plant Sizing Calculation
    No,                      !- Run Simulation for Sizing Periods
    YES,                     !- Run Simulation for Weather File Run Periods
    No,                      !- Do HVAC Sizing Simulation for Sizing Periods
    1;                       !- Maximum Number of HVAC Sizing Simulation Passes

!-   ===========  ALL OBJECTS IN CLASS: BUILDING ===========

  Building,
    SchoolSecondary,         !- Name
    0.0000,                  !- North Axis {deg}
    City,                    !- Terrain
    0.0400,                  !- Loads Convergence Tolerance Value {W}
    0.2000,                  !- Temperature Convergence Tolerance Value {deltaC}
    FullInteriorAndExterior, !- Solar Distribution
    15,                      !- Maximum Number of Warmup Days
    6;                       !- Minimum Number of Warmup Days

!-   ===========  ALL OBJECTS IN CLASS: SHADOWCALCULATION ===========

  ShadowCalculation,
    PolygonClipping,         !- Shading Calculation Method
    Periodic,                !- Shading Calculation Update Frequency Method
    30,                      !- Shading Calculation Update Frequency
    200;                     !- Maximum Figures in Shadow Overlap Calculations

!-   ===========  ALL OBJECTS IN CLASS: SURFACECONVECTIONALGORITHM:INSIDE ===========

  SurfaceConvectionAlgorithm:Inside,TARP;

!-   ===========  ALL OBJECTS IN CLASS: SURFACECONVECTIONALGORITHM:OUTSIDE ===========

  SurfaceConvectionAlgorithm:Outside,TARP;

!-   ===========  ALL OBJECTS IN CLASS: HEATBALANCEALGORITHM ===========

  HeatBalanceAlgorithm,ConductionTransferFunction,200.0000;

!-   ===========  ALL OBJECTS IN CLASS: TIMESTEP ===========

  Timestep,4;

!-   ===========  ALL OBJECTS IN CLASS: CONVERGENCELIMITS ===========

  ConvergenceLimits,
    15,                      !- Minimum System Timestep {minutes}
    5;                       !- Maximum HVAC Iterations

!-   ===========  ALL OBJECTS IN CLASS: SITE:LOCATION ===========

  Site:Location,
    Denver-Aurora-Buckley.AFB_CO_USA WMO=724695,  !- Name
    39.72,                   !- Latitude {deg}
    -104.75,                 !- Longitude {deg}
    -7.00,                   !- Time Zone {hr}
    1726.00;                 !- Elevation {m}

!-   ===========  ALL OBJECTS IN CLASS: SIZINGPERIOD:DESIGNDAY ===========

  SizingPeriod:DesignDay,
    Denver-Aurora-Buckley.AFB_CO_USA Ann Htg 99.6% Condns DB,  !- Name
    12,                      !- Month
    21,                      !- Day of Month
    WinterDesignDay,         !- Day Type
    -17.9,                   !- Maximum Dry-Bulb Temperature {C}
    0.0,                     !- Daily Dry-Bulb Temperature Range {deltaC}
    DefaultMultipliers,      !- Dry-Bulb Temperature Range Modifier Type
    ,                        !- Dry-Bulb Temperature Range Modifier Day Schedule Name
    Wetbulb,                 !- Humidity Condition Type
    -17.9,                   !- Wetbulb or DewPoint at Maximum Dry-Bulb {C}
    ,                        !- Humidity Condition Day Schedule Name
    ,                        !- Humidity Ratio at Maximum Dry-Bulb {kgWater/kgDryAir}
    ,                        !- Enthalpy at Maximum Dry-Bulb {J/kg}
    ,                        !- Daily Wet-Bulb Temperature Range {deltaC}
    82237.,                  !- Barometric Pressure {Pa}
    2.5,                     !- Wind Speed {m/s}
    180,                     !- Wind Direction {deg}
    No,                      !- Rain Indicator
    No,                      !- Snow Indicator
    No,                      !- Daylight Saving Time Indicator
    ASHRAEClearSky,          !- Solar Model Indicator
    ,                        !- Beam Solar Day Schedule Name
    ,                        !- Diffuse Solar Day Schedule Name
    ,                        !- ASHRAE Clear Sky Optical Depth for Beam Irradiance (taub) {dimensionless}
    ,                        !- ASHRAE Clear Sky Optical Depth for Diffuse Irradiance (taud) {dimensionless}
    0.00;                    !- Sky Clearness

  SizingPeriod:DesignDay,
    Denver-Aurora-Buckley.AFB_CO_USA Ann Clg .4% Condns DB=>MWB,  !- Name
    7,                       !- Month
    21,                      !- Day of Month
    SummerDesignDay,         !- Day Type
    33.9,                    !- Maximum Dry-Bulb Temperature {C}
    14.8,                    !- Daily Dry-Bulb Temperature Range {deltaC}
    DefaultMultipliers,      !- Dry-Bulb Temperature Range Modifier Type
    ,                        !- Dry-Bulb Temperature Range Modifier Day Schedule Name
    Wetbulb,                 !- Humidity Condition Type
    15,                      !- Wetbulb or DewPoint at Maximum Dry-Bulb {C}
    ,                        !- Humidity Condition Day Schedule Name
    ,                        !- Humidity Ratio at Maximum Dry-Bulb {kgWater/kgDryAir}
    ,                        !- Enthalpy at Maximum Dry-Bulb {J/kg}
    ,                        !- Daily Wet-Bulb Temperature Range {deltaC}
    82237.,                  !- Barometric Pressure {Pa}
    3.6,                     !- Wind Speed {m/s}
    30,                      !- Wind Direction {deg}
    No,                      !- Rain Indicator
    No,                      !- Snow Indicator
    No,                      !- Daylight Saving Time Indicator
    ASHRAETau,               !- Solar Model Indicator
    ,                        !- Beam Solar Day Schedule Name
    ,                        !- Diffuse Solar Day Schedule Name
    0.423,                   !- ASHRAE Clear Sky Optical Depth for Beam Irradiance (taub) {dimensionless}
    2.020;                   !- ASHRAE Clear Sky Optical Depth for Diffuse Irradiance (taud) {dimensionless}

!-   ===========  ALL OBJECTS IN CLASS: RUNPERIOD ===========

  RunPeriod,
    RUNPERIOD 1,             !- Name
    1,                       !- Begin Month
    1,                       !- Begin Day of Month
    ,                        !- Begin Year
    1,                       !- End Month
    31,                      !- End Day of Month
    ,                        !- End Year
    Sunday,                  !- Day of Week for Start Day
    No,                      !- Use Weather File Holidays and Special Days
    No,                      !- Use Weather File Daylight Saving Period
    No,                      !- Apply Weekend Holiday Rule
    Yes,                     !- Use Weather File Rain Indicators
    Yes;                     !- Use Weather File Snow Indicators

  RunPeriod,
    RUNPERIOD 2,             !- Name
    4,                       !- Begin Month
    1,                       !- Begin Day of Month
    ,                        !- Begin Year
    4,                       !- End Month
    30,                      !- End Day of Month
    ,                        !- End Year
    Sunday,                  !- Day of Week for Start Day
    No,                      !- Use Weather File Holidays and Special Days
    No,                      !- Use Weather File Daylight Saving Period
    No,                      !- Apply Weekend Holiday Rule
    Yes,                     !- Use Weather File Rain Indicators
    Yes;                     !- Use Weather File Snow Indicators

  RunPeriod,
    RUNPERIOD 3,             !- Name
    7,                       !- Begin Month
    1,                       !- Begin Day of Month
    ,                        !- Begin Year
    7,                       !- End Month
    31,                      !- End Day of Month
    ,                        !- End Year
    Sunday,                  !- Day of Week for Start Day
    No,                      !- Use Weather File Holidays and Special Days
    No,                      !- Use Weather File Daylight Saving Period
    No,                      !- Apply Weekend Holiday Rule
    Yes,                     !- Use Weather File Rain Indicators
    Yes;                     !- Use Weather File Snow Indicators

!-   ===========  ALL OBJECTS IN CLASS: RUNPERIODCONTROL:SPECIALDAYS ===========

  RunPeriodControl:SpecialDays,
    New Years Day,           !- Name
    January 1,               !- Start Date
    1,                       !- Duration {days}
    Holiday;                 !- Special Day Type

  RunPeriodControl:SpecialDays,
    Veterans Day,            !- Name
    November 11,             !- Start Date
    1,                       !- Duration {days}
    Holiday;                 !- Special Day Type

  RunPeriodControl:SpecialDays,
    Christmas,               !- Name
    December 25,             !- Start Date
    1,                       !- Duration {days}
    Holiday;                 !- Special Day Type

  RunPeriodControl:SpecialDays,
    Independence Day,        !- Name
    July 4,                  !- Start Date
    1,                       !- Duration {days}
    Holiday;                 !- Special Day Type

  RunPeriodControl:SpecialDays,
    MLK Day,                 !- Name
    3rd Monday in January,   !- Start Date
    1,                       !- Duration {days}
    Holiday;                 !- Special Day Type

  RunPeriodControl:SpecialDays,
    Presidents Day,          !- Name
    3rd Monday in February,  !- Start Date
    1,                       !- Duration {days}
    Holiday;                 !- Special Day Type

  RunPeriodControl:SpecialDays,
    Memorial Day,            !- Name
    Last Monday in May,      !- Start Date
    1,                       !- Duration {days}
    Holiday;                 !- Special Day Type

  RunPeriodControl:SpecialDays,
    Labor Day,               !- Name
    1st Monday in September, !- Start Date
    1,                       !- Duration {days}
    Holiday;                 !- Special Day Type

  RunPeriodControl:SpecialDays,
    Columbus Day,            !- Name
    2nd Monday in October,   !- Start Date
    1,                       !- Duration {days}
    Holiday;                 !- Special Day Type

  RunPeriodControl:SpecialDays,
    Thanksgiving,            !- Name
    4th Thursday in November,!- Start Date
    1,                       !- Duration {days}
    Holiday;                 !- Special Day Type

!-   ===========  ALL OBJECTS IN CLASS: RUNPERIODCONTROL:DAYLIGHTSAVINGTIME ===========

  RunPeriodControl:DaylightSavingTime,
    2nd Sunday in March,     !- Start Date
    1st Sunday in November;  !- End Date

!-   ===========  ALL OBJECTS IN CLASS: SITE:GROUNDTEMPERATURE:FCFACTORMETHOD ===========

  Site:GroundTemperature:FCfactorMethod,7.1,3.0,-1.0,0.8,-0.2,4.8,6.1,13.7,22.2,22.7,21.7,18.5;

!-   ===========  ALL OBJECTS IN CLASS: SITE:WATERMAINSTEMPERATURE ===========

  Site:WaterMainsTemperature,
    CORRELATION,             !- Calculation Method
    ,                        !- Temperature Schedule Name
    9.95,                    !- Annual Average Outdoor Air Temperature {C}
    23.7;                    !- Maximum Difference In Monthly Average Outdoor Air Temperatures {deltaC}

!-   ===========  ALL OBJECTS IN CLASS: SCHEDULETYPELIMITS ===========

  ScheduleTypeLimits,
    Any Number;              !- Name

  ScheduleTypeLimits,
    Fraction,                !- Name
    0.0,                     !- Lower Limit Value
    1.0,                     !- Upper Limit Value
    CONTINUOUS;              !- Numeric Type

  ScheduleTypeLimits,
    Temperature,             !- Name
    -60,                     !- Lower Limit Value
    200,                     !- Upper Limit Value
    CONTINUOUS;              !- Numeric Type

  ScheduleTypeLimits,
    On/Off,                  !- Name
    0,                       !- Lower Limit Value
    1,                       !- Upper Limit Value
    DISCRETE;                !- Numeric Type

  ScheduleTypeLimits,
    Control Type,            !- Name
    0,                       !- Lower Limit Value
    4,                       !- Upper Limit Value
    DISCRETE;                !- Numeric Type

  ScheduleTypeLimits,
    Humidity,                !- Name
    10,                      !- Lower Limit Value
    90,                      !- Upper Limit Value
    CONTINUOUS;              !- Numeric Type

  ScheduleTypeLimits,
    Number;                  !- Name

!-   ===========  ALL OBJECTS IN CLASS: SCHEDULE:COMPACT ===========

  Schedule:Compact,
    BLDG_LIGHT_BATH_SCH,     !- Name
    Fraction,                !- Schedule Type Limits Name
    Through: 6/30,           !- Field 1
    For: Weekdays,           !- Field 2
    Until: 7:00,0.1773,      !- Field 3
    Until: 8:00,0.9,         !- Field 5
    Until: 21:00,0.594,      !- Field 7
    Until: 24:00,0.1773,     !- Field 9
    For: SummerDesignDay,    !- Field 11
    Until: 24:00,1,          !- Field 12
    For: WinterDesignDay,    !- Field 14
    Until: 24:00,0,          !- Field 15
    For: WeekEnds Holidays AllOtherDays, !- Field 17
    Until: 24:00,0.1773,     !- Field 18
    Through: 9/1,            !- Field 20
    For: Weekdays,           !- Field 21
    Until: 8:00,0.1773,      !- Field 22
    Until: 20:00,0.33,       !- Field 24
    Until: 21:00,0.117018,   !- Field 26
    Until: 24:00,0.1773,     !- Field 28
    For: SummerDesignDay,    !- Field 30
    Until: 24:00,1,          !- Field 31
    For: WinterDesignDay,    !- Field 33
    Until: 24:00,0,          !- Field 34
    For: WeekEnds Holidays AllOtherDays, !- Field 36
    Until: 24:00,0.1773,     !- Field 37
    Through: 12/31,          !- Field 39
    For: Weekdays,           !- Field 40
    Until: 7:00,0.1773,      !- Field 41
    Until: 8:00,0.9,         !- Field 43
    Until: 21:00,0.594,      !- Field 45
    Until: 24:00,0.1773,     !- Field 47
    For: SummerDesignDay,    !- Field 49
    Until: 24:00,1,          !- Field 50
    For: WinterDesignDay,    !- Field 52
    Until: 24:00,0,          !- Field 53
    For: WeekEnds Holidays AllOtherDays, !- Field 55
    Until: 24:00,0.1773;     !- Field 56

                             !- Field 27

  Schedule:Compact,
    BLDG_LIGHT_CLASSROOM_SCH,!- Name
    Fraction,                !- Schedule Type Limits Name
    Through: 6/30,           !- Field 1
    For: Weekdays,           !- Field 2
    Until: 7:00,0.1773,      !- Field 3
    Until: 8:00,0.9,         !- Field 5
    Until: 21:00,0.5982912,  !- Field 7
    Until: 24:00,0.1773,     !- Field 9
    For: SummerDesignDay,    !- Field 11
    Until: 24:00,1,          !- Field 12
    For: WinterDesignDay,    !- Field 14
    Until: 24:00,0,          !- Field 15
    For: WeekEnds Holidays AllOtherDays, !- Field 17
    Until: 24:00,0.1773,     !- Field 18
    Through: 9/1,            !- Field 20
    For: Weekdays,           !- Field 21
    Until: 8:00,0.1773,      !- Field 22
    Until: 20:00,0.332384,   !- Field 24
    Until: 21:00,0.1178633664, !- Field 26
    Until: 24:00,0.1773,     !- Field 28
    For: SummerDesignDay,    !- Field 30
    Until: 24:00,1,          !- Field 31
    For: WinterDesignDay,    !- Field 33
    Until: 24:00,0,          !- Field 34
    For: WeekEnds Holidays AllOtherDays, !- Field 36
    Until: 24:00,0.1773,     !- Field 37
    Through: 12/31,          !- Field 39
    For: Weekdays,           !- Field 40
    Until: 7:00,0.1773,      !- Field 41
    Until: 8:00,0.9,         !- Field 43
    Until: 21:00,0.5982912,  !- Field 45
    Until: 24:00,0.1773,     !- Field 47
    For: SummerDesignDay,    !- Field 49
    Until: 24:00,1,          !- Field 50
    For: WinterDesignDay,    !- Field 52
    Until: 24:00,0,          !- Field 53
    For: WeekEnds Holidays AllOtherDays, !- Field 55
    Until: 24:00,0.1773;     !- Field 56

                             !- Field 27

  Schedule:Compact,
    BLDG_LIGHT_CORRIDOR_SCH, !- Name
    Fraction,                !- Schedule Type Limits Name
    Through: 6/30,           !- Field 1
    For: Weekdays,           !- Field 2
    Until: 7:00,0.1773,      !- Field 3
    Until: 8:00,0.9,         !- Field 5
    Until: 21:00,0.551772,   !- Field 7
    Until: 24:00,0.1773,     !- Field 9
    For: SummerDesignDay,    !- Field 11
    Until: 24:00,1,          !- Field 12
    For: WinterDesignDay,    !- Field 14
    Until: 24:00,0,          !- Field 15
    For: WeekEnds Holidays AllOtherDays, !- Field 17
    Until: 24:00,0.1773,     !- Field 18
    Through: 9/1,            !- Field 20
    For: Weekdays,           !- Field 21
    Until: 8:00,0.1773,      !- Field 22
    Until: 20:00,0.30654,    !- Field 24
    Until: 21:00,0.108699084,!- Field 26
    Until: 24:00,0.1773,     !- Field 28
    For: SummerDesignDay,    !- Field 30
    Until: 24:00,1,          !- Field 31
    For: WinterDesignDay,    !- Field 33
    Until: 24:00,0,          !- Field 34
    For: WeekEnds Holidays AllOtherDays, !- Field 36
    Until: 24:00,0.1773,     !- Field 37
    Through: 12/31,          !- Field 39
    For: Weekdays,           !- Field 40
    Until: 7:00,0.1773,      !- Field 41
    Until: 8:00,0.9,         !- Field 43
    Until: 21:00,0.551772,   !- Field 45
    Until: 24:00,0.1773,     !- Field 47
    For: SummerDesignDay,    !- Field 49
    Until: 24:00,1,          !- Field 50
    For: WinterDesignDay,    !- Field 52
    Until: 24:00,0,          !- Field 53
    For: WeekEnds Holidays AllOtherDays, !- Field 55
    Until: 24:00,0.1773;     !- Field 56

  Schedule:Compact,
    BLDG_LIGHT_GYM_SCH,      !- Name
    Fraction,                !- Schedule Type Limits Name
    Through: 6/30,           !- Field 1
    For: Weekdays,           !- Field 2
    Until: 7:00,0.1773,      !- Field 3
    Until: 8:00,0.9,         !- Field 5
    Until: 21:00,0.88182,    !- Field 7
    Until: 24:00,0.1773,     !- Field 9
    For: SummerDesignDay,    !- Field 11
    Until: 24:00,1,          !- Field 12
    For: WinterDesignDay,    !- Field 14
    Until: 24:00,0,          !- Field 15
    For: WeekEnds Holidays AllOtherDays, !- Field 17
    Until: 24:00,0.1773,     !- Field 18
    Through: 9/1,            !- Field 20
    For: Weekdays,           !- Field 21
    Until: 8:00,0.1773,      !- Field 22
    Until: 20:00,0.4899,     !- Field 24
    Until: 21:00,0.17371854, !- Field 26
    Until: 24:00,0.1773,     !- Field 28
    For: SummerDesignDay,    !- Field 30
    Until: 24:00,1,          !- Field 31
    For: WinterDesignDay,    !- Field 33
    Until: 24:00,0,          !- Field 34
    For: WeekEnds Holidays AllOtherDays, !- Field 36
    Until: 24:00,0.1773,     !- Field 37
    Through: 12/31,          !- Field 39
    For: Weekdays,           !- Field 40
    Until: 7:00,0.1773,      !- Field 41
    Until: 8:00,0.9,         !- Field 43
    Until: 21:00,0.88182,    !- Field 45
    Until: 24:00,0.1773,     !- Field 47
    For: SummerDesignDay,    !- Field 49
    Until: 24:00,1,          !- Field 50
    For: WinterDesignDay,    !- Field 52
    Until: 24:00,0,          !- Field 53
    For: WeekEnds Holidays AllOtherDays, !- Field 55
    Until: 24:00,0.1773;     !- Field 56

  Schedule:Compact,
    BLDG_LIGHT_LIBRARY_SCH,  !- Name
    Fraction,                !- Schedule Type Limits Name
    Through: 6/30,           !- Field 1
    For: Weekdays,           !- Field 2
    Until: 7:00,0.1773,      !- Field 3
    Until: 8:00,0.9,         !- Field 5
    Until: 21:00,0.8325,     !- Field 7
    Until: 24:00,0.1773,     !- Field 9
    For: SummerDesignDay,    !- Field 11
    Until: 24:00,1,          !- Field 12
    For: WinterDesignDay,    !- Field 14
    Until: 24:00,0,          !- Field 15
    For: WeekEnds Holidays AllOtherDays, !- Field 17
    Until: 24:00,0.1773,     !- Field 18
    Through: 9/1,            !- Field 20
    For: Weekdays,           !- Field 21
    Until: 8:00,0.1773,      !- Field 22
    Until: 20:00,0.4625,     !- Field 24
    Until: 21:00,0.1640025,  !- Field 26
    Until: 24:00,0.1773,     !- Field 28
    For: SummerDesignDay,    !- Field 30
    Until: 24:00,1,          !- Field 31
    For: WinterDesignDay,    !- Field 33
    Until: 24:00,0,          !- Field 34
    For: WeekEnds Holidays AllOtherDays, !- Field 36
    Until: 24:00,0.1773,     !- Field 37
    Through: 12/31,          !- Field 39
    For: Weekdays,           !- Field 40
    Until: 7:00,0.1773,      !- Field 41
    Until: 8:00,0.9,         !- Field 43
    Until: 21:00,0.8325,     !- Field 45
    Until: 24:00,0.1773,     !- Field 47
    For: SummerDesignDay,    !- Field 49
    Until: 24:00,1,          !- Field 50
    For: WinterDesignDay,    !- Field 52
    Until: 24:00,0,          !- Field 53
    For: WeekEnds Holidays AllOtherDays, !- Field 55
    Until: 24:00,0.1773;     !- Field 56

  Schedule:Compact,
    BLDG_LIGHT_LOBBYFLR1_SCH,!- Name
    Fraction,                !- Schedule Type Limits Name
    Through: 6/30,           !- Field 1
    For: Weekdays,           !- Field 2
    Until: 7:00,0.1773,      !- Field 3
    Until: 8:00,0.9,         !- Field 5
    Until: 21:00,0.855,      !- Field 7
    Until: 24:00,0.1773,     !- Field 9
    For: SummerDesignDay,    !- Field 11
    Until: 24:00,1,          !- Field 12
    For: WinterDesignDay,    !- Field 14
    Until: 24:00,0,          !- Field 15
    For: WeekEnds Holidays AllOtherDays, !- Field 17
    Until: 24:00,0.1773,     !- Field 18
    Through: 9/1,            !- Field 20
    For: Weekdays,           !- Field 21
    Until: 8:00,0.1773,      !- Field 22
    Until: 20:00,0.475,      !- Field 24
    Until: 21:00,0.168435,   !- Field 26
    Until: 24:00,0.1773,     !- Field 28
    For: SummerDesignDay,    !- Field 30
    Until: 24:00,1,          !- Field 31
    For: WinterDesignDay,    !- Field 33
    Until: 24:00,0,          !- Field 34
    For: WeekEnds Holidays AllOtherDays, !- Field 36
    Until: 24:00,0.1773,     !- Field 37
    Through: 12/31,          !- Field 39
    For: Weekdays,           !- Field 40
    Until: 7:00,0.1773,      !- Field 41
    Until: 8:00,0.9,         !- Field 43
    Until: 21:00,0.855,      !- Field 45
    Until: 24:00,0.1773,     !- Field 47
    For: SummerDesignDay,    !- Field 49
    Until: 24:00,1,          !- Field 50
    For: WinterDesignDay,    !- Field 52
    Until: 24:00,0,          !- Field 53
    For: WeekEnds Holidays AllOtherDays, !- Field 55
    Until: 24:00,0.1773;     !- Field 56

  Schedule:Compact,
    BLDG_LIGHT_MECHANIC_SCH, !- Name
    Fraction,                !- Schedule Type Limits Name
    Through: 6/30,           !- Field 1
    For: Weekdays,           !- Field 2
    Until: 7:00,0.1773,      !- Field 3
    Until: 21:00,0.9,        !- Field 5
    Until: 24:00,0.1773,     !- Field 7
    For: SummerDesignDay,    !- Field 9
    Until: 24:00,1,          !- Field 10
    For: WinterDesignDay,    !- Field 12
    Until: 24:00,0,          !- Field 13
    For: WeekEnds Holidays AllOtherDays, !- Field 15
    Until: 24:00,0.1773,     !- Field 16
    Through: 9/1,            !- Field 18
    For: Weekdays,           !- Field 19
    Until: 8:00,0.1773,      !- Field 20
    Until: 20:00,0.5,        !- Field 22
    Until: 24:00,0.1773,     !- Field 24
    For: SummerDesignDay,    !- Field 26
    Until: 24:00,1,          !- Field 27
    For: WinterDesignDay,    !- Field 29
    Until: 24:00,0,          !- Field 30
    For: WeekEnds Holidays AllOtherDays, !- Field 32
    Until: 24:00,0.1773,     !- Field 33
    Through: 12/31,          !- Field 35
    For: Weekdays,           !- Field 36
    Until: 7:00,0.1773,      !- Field 37
    Until: 21:00,0.9,        !- Field 39
    Until: 24:00,0.1773,     !- Field 41
    For: SummerDesignDay,    !- Field 43
    Until: 24:00,1,          !- Field 44
    For: WinterDesignDay,    !- Field 46
    Until: 24:00,0,          !- Field 47
    For: WeekEnds Holidays AllOtherDays, !- Field 49
    Until: 24:00,0.1773;     !- Field 50

  Schedule:Compact,
    BLDG_LIGHT_MISC_SCH,     !- Name
    Fraction,                !- Schedule Type Limits Name
    Through: 6/30,           !- Field 1
    For: Weekdays,           !- Field 2
    Until: 7:00,0.1773,      !- Field 3
    Until: 21:00,0.9,        !- Field 5
    Until: 24:00,0.1773,     !- Field 7
    For: SummerDesignDay,    !- Field 9
    Until: 24:00,1,          !- Field 10
    For: WinterDesignDay,    !- Field 12
    Until: 24:00,0,          !- Field 13
    For: WeekEnds Holidays AllOtherDays, !- Field 15
    Until: 24:00,0.1773,     !- Field 16
    Through: 9/1,            !- Field 18
    For: Weekdays,           !- Field 19
    Until: 8:00,0.1773,      !- Field 20
    Until: 20:00,0.5,        !- Field 22
    Until: 24:00,0.1773,     !- Field 24
    For: SummerDesignDay,    !- Field 26
    Until: 24:00,1,          !- Field 27
    For: WinterDesignDay,    !- Field 29
    Until: 24:00,0,          !- Field 30
    For: WeekEnds Holidays AllOtherDays, !- Field 32
    Until: 24:00,0.1773,     !- Field 33
    Through: 12/31,          !- Field 35
    For: Weekdays,           !- Field 36
    Until: 7:00,0.1773,      !- Field 37
    Until: 21:00,0.9,        !- Field 39
    Until: 24:00,0.1773,     !- Field 41
    For: SummerDesignDay,    !- Field 43
    Until: 24:00,1,          !- Field 44
    For: WinterDesignDay,    !- Field 46
    Until: 24:00,0,          !- Field 47
    For: WeekEnds Holidays AllOtherDays, !- Field 49
    Until: 24:00,0.1773;     !- Field 50

                             !- Field 27

  Schedule:Compact,
    BLDG_LIGHT_OFFICE_SCH,   !- Name
    Fraction,                !- Schedule Type Limits Name
    Through: 6/30,           !- Field 1
    For: Weekdays,           !- Field 2
    Until: 7:00,0.1773,      !- Field 3
    Until: 8:00,0.9,         !- Field 5
    Until: 21:00,0.7479585,  !- Field 7
    Until: 24:00,0.1773,     !- Field 9
    For: SummerDesignDay,    !- Field 11
    Until: 24:00,1,          !- Field 12
    For: WinterDesignDay,    !- Field 14
    Until: 24:00,0,          !- Field 15
    For: WeekEnds Holidays AllOtherDays, !- Field 17
    Until: 24:00,0.1773,     !- Field 18
    Through: 9/1,            !- Field 20
    For: Weekdays,           !- Field 21
    Until: 8:00,0.1773,      !- Field 22
    Until: 20:00,0.4155325,  !- Field 24
    Until: 21:00,0.1473478245, !- Field 26
    Until: 24:00,0.1773,     !- Field 28
    For: SummerDesignDay,    !- Field 30
    Until: 24:00,1,          !- Field 31
    For: WinterDesignDay,    !- Field 33
    Until: 24:00,0,          !- Field 34
    For: WeekEnds Holidays AllOtherDays, !- Field 36
    Until: 24:00,0.1773,     !- Field 37
    Through: 12/31,          !- Field 39
    For: Weekdays,           !- Field 40
    Until: 7:00,0.1773,      !- Field 41
    Until: 8:00,0.9,         !- Field 43
    Until: 21:00,0.7479585,  !- Field 45
    Until: 24:00,0.1773,     !- Field 47
    For: SummerDesignDay,    !- Field 49
    Until: 24:00,1,          !- Field 50
    For: WinterDesignDay,    !- Field 52
    Until: 24:00,0,          !- Field 53
    For: WeekEnds Holidays AllOtherDays, !- Field 55
    Until: 24:00,0.1773;     !- Field 56

  Schedule:Compact,
    BLDG_LIGHT_SCH,          !- Name
    Fraction,                !- Schedule Type Limits Name
    Through: 6/30,           !- Field 1
    For: Weekdays,           !- Field 2
    Until: 7:00,0.1773,      !- Field 3
    Until: 21:00,0.9,        !- Field 5
    Until: 24:00,0.1773,     !- Field 7
    For: SummerDesignDay,    !- Field 9
    Until: 24:00,1,          !- Field 10
    For: WinterDesignDay,    !- Field 12
    Until: 24:00,0,          !- Field 13
    For: WeekEnds Holidays AllOtherDays, !- Field 15
    Until: 24:00,0.1773,     !- Field 16
    Through: 9/1,            !- Field 18
    For: Weekdays,           !- Field 19
    Until: 8:00,0.1773,      !- Field 20
    Until: 20:00,0.5,        !- Field 22
    Until: 24:00,0.1773,     !- Field 24
    For: SummerDesignDay,    !- Field 26
    Until: 24:00,1,          !- Field 27
    For: WinterDesignDay,    !- Field 29
    Until: 24:00,0,          !- Field 30
    For: WeekEnds Holidays AllOtherDays, !- Field 32
    Until: 24:00,0.1773,     !- Field 33
    Through: 12/31,          !- Field 35
    For: Weekdays,           !- Field 36
    Until: 7:00,0.1773,      !- Field 37
    Until: 21:00,0.9,        !- Field 39
    Until: 24:00,0.1773,     !- Field 41
    For: SummerDesignDay,    !- Field 43
    Until: 24:00,1,          !- Field 44
    For: WinterDesignDay,    !- Field 46
    Until: 24:00,0,          !- Field 47
    For: WeekEnds Holidays AllOtherDays, !- Field 49
    Until: 24:00,0.1773;     !- Field 50

                             !- Field 14
                             !- Field 16
                             !- Field 18
                             !- Field 20
                             !- Field 23
                             !- Field 37
                             !- Field 39
                             !- Field 41
                             !- Field 43
                             !- Field 46
                             !- Field 60
                             !- Field 62
                             !- Field 64
                             !- Field 66

  Schedule:Compact,
    BLDG_EQUIP_SCH,          !- Name
    Fraction,                !- Schedule Type Limits Name
    Through: 6/30,           !- Field 1
    For: SummerDesignDay,    !- Field 2
    Until: 08:00,0.35,       !- Field 3
    Until: 17:00,0.95,       !- Field 5
    Until: 24:00,0.35,       !- Field 7
    For: WinterDesignDay,    !- Field 9
    Until: 24:00,0.35,       !- Field 10
    For: Weekdays,           !- Field 12
    Until: 08:00,0.29562366715, !- Field 13
    Until: 17:00,0.90367002475, !- Field 15
    Until: 21:00,0.33293106175, !- Field 17
    Until: 24:00,0.29562366715, !- Field 19
    For: WeekEnds Holidays AllOtherDays, !- Field 21
    Until: 24:00,0.29562366715, !- Field 22