!- Windows Line endings 

Version,
    9.6;                      !- Version Identifier

SimulationControl,
    Yes,                      !- Do Zone Sizing Calculation
    Yes,                      !- Do System Sizing Calculation
    No,                       !- Do Plant Sizing Calculation
    No,                       !- Run Simulation for Sizing Periods
    YES,                      !- Run Simulation for Weather File Run Periods
    No,                       !- Do HVAC Sizing Simulation for Sizing Periods
    1;                        !- Maximum Number of HVAC Sizing Simulation Passes

Building,
    ApartmentMidRise,         !- Name
    0,                        !- North Axis
    City,                     !- Terrain
    0.04,                     !- Loads Convergence Tolerance Value
    0.4,                      !- Temperature Convergence Tolerance Value
    MinimalShadowing,         !- Solar Distribution
    15,                       !- Maximum Number of Warmup Days
    6;                        !- Minimum Number of Warmup Days

SurfaceConvectionAlgorithm:Inside,
    TARP;                     !- Algorithm

SurfaceConvectionAlgorithm:Outside,
    TARP;                     !- Algorithm

HeatBalanceAlgorithm,
    ConductionTransferFunction;    !- Algorithm

Timestep,
    4;                        !- Number of Timesteps per Hour

ConvergenceLimits,
    15,                       !- Minimum System Timestep
    5;                        !- Maximum HVAC Iterations

Site:Location,
    Denver-Aurora-Buckley.AFB_CO_USA WMO=724695,    !- Name
    39.72,                    !- Latitude
    -104.75,                  !- Longitude
    -7,                       !- Time Zone
    1726;                     !- Elevation

SizingPeriod:DesignDay,
    Denver-Aurora-Buckley.AFB_CO_USA Ann Htg 99.6% Condns DB,    !- Name
    12,                       !- Month
    21,                       !- Day of Month
    WinterDesignDay,          !- Day Type
    -17.9,                    !- Maximum DryBulb Temperature
    0,                        !- Daily DryBulb Temperature Range
    DefaultMultipliers,       !- DryBulb Temperature Range Modifier Type
    ,                         !- DryBulb Temperature Range Modifier Day Schedule Name
    Wetbulb,                  !- Humidity Condition Type
    -17.9,                    !- Wetbulb or DewPoint at Maximum DryBulb
    ,                         !- Humidity Condition Day Schedule Name
    ,                         !- Humidity Ratio at Maximum DryBulb
    ,                         !- Enthalpy at Maximum DryBulb
    ,                         !- Daily WetBulb Temperature Range
    82237,                    !- Barometric Pressure
    2.5,                      !- Wind Speed
    180,                      !- Wind Direction
    No,                       !- Rain Indicator
    No,                       !- Snow Indicator
    No,                       !- Daylight Saving Time Indicator
    ASHRAEClearSky,           !- Solar Model Indicator
    ,                         !- Beam Solar Day Schedule Name
    ,                         !- Diffuse Solar Day Schedule Name
    ,                         !- ASHRAE Clear Sky Optical Depth for Beam Irradiance taub
    ,                         !- ASHRAE Clear Sky Optical Depth for Diffuse Irradiance taud
    0;                        !- Sky Clearness

SizingPeriod:DesignDay,
    Denver-Aurora-Buckley.AFB_CO_USA Ann Clg .4% Condns DB=>MWB,    !- Name
    7,                        !- Month
    21,                       !- Day of Month
    SummerDesignDay,          !- Day Type
    33.9,                     !- Maximum DryBulb Temperature
    14.8,                     !- Daily DryBulb Temperature Range
    DefaultMultipliers,       !- DryBulb Temperature Range Modifier Type
    ,                         !- DryBulb Temperature Range Modifier Day Schedule Name
    Wetbulb,                  !- Humidity Condition Type
    15,                       !- Wetbulb or DewPoint at Maximum DryBulb
    ,                         !- Humidity Condition Day Schedule Name
    ,                         !- Humidity Ratio at Maximum DryBulb
    ,                         !- Enthalpy at Maximum DryBulb
    ,                         !- Daily WetBulb Temperature Range
    82237,                    !- Barometric Pressure
    3.6,                      !- Wind Speed
    30,                       !- Wind Direction
    No,                       !- Rain Indicator
    No,                       !- Snow Indicator
    No,                       !- Daylight Saving Time Indicator
    ASHRAETau,                !- Solar Model Indicator
    ,                         !- Beam Solar Day Schedule Name
    ,                         !- Diffuse Solar Day Schedule Name
    0.423,                    !- ASHRAE Clear Sky Optical Depth for Beam Irradiance taub
    2.02;                     !- ASHRAE Clear Sky Optical Depth for Diffuse Irradiance taud

RunPeriod,
    RUNPERIOD 1,              !- Name
    1,                        !- Begin Month
    1,                        !- Begin Day of Month
    ,                         !- Begin Year
    1,                        !- End Month
    31,                       !- End Day of Month
    ,                         !- End Year
    Sunday,                   !- Day of Week for Start Day
    No,                       !- Use Weather File Holidays and Special Days
    No,                       !- Use Weather File Daylight Saving Period
    Yes,                      !- Apply Weekend Holiday Rule
    Yes,                      !- Use Weather File Rain Indicators
    Yes;                      !- Use Weather File Snow Indicators

RunPeriod,
    RUNPERIOD 2,              !- Name
    4,                        !- Begin Month
    1,                        !- Begin Day of Month
    ,                         !- Begin Year
    4,                        !- End Month
    30,                       !- End Day of Month
    ,                         !- End Year
    Sunday,                   !- Day of Week for Start Day
    No,                       !- Use Weather File Holidays and Special Days
    No,                       !- Use Weather File Daylight Saving Period
    No,                       !- Apply Weekend Holiday Rule
    Yes,                      !- Use Weather File Rain Indicators
    Yes;                      !- Use Weather File Snow Indicators

RunPeriod,
    RUNPERIOD 3,              !- Name
    7,                        !- Begin Month
    1,                        !- Begin Day of Month
    ,                         !- Begin Year
    7,                        !- End Month
    31,                       !- End Day of Month
    ,                         !- End Year
    Sunday,                   !- Day of Week for Start Day
    No,                       !- Use Weather File Holidays and Special Days
    No,                       !- Use Weather File Daylight Saving Period
    No,                       !- Apply Weekend Holiday Rule
    Yes,                      !- Use Weather File Rain Indicators
    Yes;                      !- Use Weather File Snow Indicators

RunPeriodControl:SpecialDays,
    New Year's Day,           !- Name
    Jan 1,                    !- Start Date
    1,                        !- Duration
    Holiday;                  !- Special Day Type

RunPeriodControl:SpecialDays,
    MLK Day,                  !- Name
    3rd Monday in January,    !- Start Date
    1,                        !- Duration
    Holiday;                  !- Special Day Type

RunPeriodControl:SpecialDays,
    Presidents Day,           !- Name
    3rd Monday in February,    !- Start Date
    1,                        !- Duration
    Holiday;                  !- Special Day Type

RunPeriodControl:SpecialDays,
    Memorial Day,             !- Name
    Last Monday in May,       !- Start Date
    1,                        !- Duration
    Holiday;                  !- Special Day Type

RunPeriodControl:SpecialDays,
    Independence Day,         !- Name
    July 4,                   !- Start Date
    1,                        !- Duration
    Holiday;                  !- Special Day Type

RunPeriodControl:SpecialDays,
    Labor day,                !- Name
    1st Monday in September,    !- Start Date
    1,                        !- Duration
    Holiday;                  !- Special Day Type

RunPeriodControl:SpecialDays,
    Columbus Day,             !- Name
    2nd Monday in October,    !- Start Date
    1,                        !- Duration
    Holiday;                  !- Special Day Type

RunPeriodControl:SpecialDays,
    Thanksgiving,             !- Name
    4th Thursday in November,    !- Start Date
    1,                        !- Duration
    Holiday;                  !- Special Day Type

RunPeriodControl:SpecialDays,
    Veterans Day,             !- Name
    November 11,              !- Start Date
    1,                        !- Duration
    Holiday;                  !- Special Day Type

RunPeriodControl:SpecialDays,
    Christmas,                !- Name
    December 25,              !- Start Date
    1,                        !- Duration
    Holiday;                  !- Special Day Type

RunPeriodControl:DaylightSavingTime,
    2nd Sunday in March,      !- Start Date
    1st Sunday in November;    !- End Date

Site:GroundTemperature:FCfactorMethod,
    7.1,                      !- January Ground Temperature
    3,                        !- February Ground Temperature
    -1,                       !- March Ground Temperature
    0.8,                      !- April Ground Temperature
    -0.2,                     !- May Ground Temperature
    4.8,                      !- June Ground Temperature
    6.1,                      !- July Ground Temperature
    13.7,                     !- August Ground Temperature
    22.2,                     !- September Ground Temperature
    22.7,                     !- October Ground Temperature
    21.7,                     !- November Ground Temperature
    18.5;                     !- December Ground Temperature

Site:WaterMainsTemperature,
    Correlation,              !- Calculation Method
    ,                         !- Temperature Schedule Name
    9.95,                     !- Annual Average Outdoor Air Temperature
    23.7;                     !- Maximum Difference In Monthly Average Outdoor Air Temperatures

ScheduleTypeLimits,
    Fraction,                 !- Name
    0,                        !- Lower Limit Value
    1,                        !- Upper Limit Value
    Continuous;               !- Numeric Type

ScheduleTypeLimits,
    Temperature,              !- Name
    -100,                     !- Lower Limit Value
    100,                      !- Upper Limit Value
    Continuous;               !- Numeric Type

ScheduleTypeLimits,
    Any Number;               !- Name

ScheduleTypeLimits,
    COMPACT HVAC Any Number;    !- Name

Schedule:Compact,
    OCC_APT_SCH,              !- Name
    Fraction,                 !- Schedule Type Limits Name
    Through: 12/31,           !- Field 1
    For: AllDays,             !- Field 2
    Until: 7:00,              !- Field 3
    1.0,                      !- Field 4
    Until: 8:00,              !- Field 5
    0.85,                     !- Field 6
    Until: 9:00,              !- Field 7
    0.39,                     !- Field 8
    Until: 16:00,             !- Field 9
    0.25,                     !- Field 10
    Until: 17:00,             !- Field 11
    0.3,                      !- Field 12
    Until: 18:00,             !- Field 13
    0.52,                     !- Field 14
    Until: 21:00,             !- Field 15
    0.87,                     !- Field 16
    Until: 24:00,             !- Field 17
    1.0;                      !- Field 18

Schedule:Compact,
    OCC_OFF_SCH,              !- Name
    Fraction,                 !- Schedule Type Limits Name
    Through: 12/31,           !- Field 1
    For: Weekdays,            !- Field 2
    Until: 8:00,              !- Field 3
    0.0,                      !- Field 4
    Until: 12:00,             !- Field 5
    1.0,                      !- Field 6
    Until: 13:00,             !- Field 7
    0.5,                      !- Field 8
    Until: 17:00,             !- Field 9
    1.0,                      !- Field 10
    Until: 24:00,             !- Field 11
    0.0,                      !- Field 12
    For AllOtherDays,         !- Field 13
    Until: 24:00,             !- Field 14
    0.0;                      !- Field 15

Schedule:Compact,
    OCC_OFF_w_SB_SCH,         !- Name
    Fraction,                 !- Schedule Type Limits Name
    Through: 12/31,           !- Field 1
    For: Weekdays,            !- Field 2
    Until: 01:00,             !- Field 3
    0,                        !- Field 4
    Until: 02:00,             !- Field 5
    0,                        !- Field 6
    Until: 03:00,             !- Field 7
    0,                        !- Field 8
    Until: 04:00,             !- Field 9
    0,                        !- Field 10
    Until: 05:00,             !- Field 11
    0,                        !- Field 12
    Until: 06:00,             !- Field 13
    0,                        !- Field 14
    Until: 07:00,             !- Field 15
    0,                        !- Field 16
    Until: 08:00,             !- Field 17
    0,                        !- Field 18
    Until: 09:00,             !- Field 19
    1,                        !- Field 20
    Until: 10:00,             !- Field 21
    1,                        !- Field 22
    Until: 11:00,             !- Field 23
    1,                        !- Field 24
    Until: 12:00,             !- Field 25
    1,                        !- Field 26
    Until: 13:00,             !- Field 27
    0,                        !- Field 28
    Until: 14:00,             !- Field 29
    1,                        !- Field 30
    Until: 15:00,             !- Field 31
    0,                        !- Field 32
    Until: 16:00,             !- Field 33
    1,                        !- Field 34
    Until: 17:00,             !- Field 35
    1,                        !- Field 36
    Until: 18:00,             !- Field 37
    0,                        !- Field 38
    Until: 19:00,             !- Field 39
    0,                        !- Field 40
    Until: 20:00,             !- Field 41
    0,                        !- Field 42
    Until: 21:00,             !- Field 43
    0,                        !- Field 44
    Until: 22:00,             !- Field 45
    0,                        !- Field 46
    Until: 23:00,             !- Field 47
    0,                        !- Field 48
    Until: 24:00,             !- Field 49
    0,                        !- Field 50
    For: AllOtherDays,        !- Field 51
    Until: 01:00,             !- Field 52
    0,                        !- Field 53
    Until: 02:00,             !- Field 54
    0,                        !- Field 55
    Until: 03:00,             !- Field 56
    0,                        !- Field 57
    Until: 04:00,             !- Field 58
    0,                        !- Field 59
    Until: 05:00,             !- Field 60
    0,                        !- Field 61
    Until: 06:00,             !- Field 62
    0,                        !- Field 63
    Until: 07:00,             !- Field 64
    0,                        !- Field 65
    Until: 08:00,             !- Field 66
    0,                        !- Field 67
    Until: 09:00,             !- Field 68
    0,                        !- Field 69
    Until: 10:00,             !- Field 70
    0,                        !- Field 71
    Until: 11:00,             !- Field 72
    0,                        !- Field 73
    Until: 12:00,             !- Field 74
    0,                        !- Field 75
    Until: 13:00,             !- Field 76
    0,                        !- Field 77
    Until: 14:00,             !- Field 78
    0,                        !- Field 79
    Until: 15:00,             !- Field 80
    0,                        !- Field 81
    Until: 16:00,             !- Field 82
    0,                        !- Field 83
    Until: 17:00,             !- Field 84
    0,                        !- Field 85
    Until: 18:00,             !- Field 86
    0,                        !- Field 87
    Until: 19:00,             !- Field 88
    0,                        !- Field 89
    Until: 20:00,             !- Field 90
    0,                        !- Field 91
    Until: 21:00,             !- Field 92
    0,                        !- Field 93
    Until: 22:00,             !- Field 94
    0,                        !- Field 95
    Until: 23:00,             !- Field 96
    0,                        !- Field 97
    Until: 24:00,             !- Field 98
    0;                        !- Field 99

Schedule:Compact,
    LTG_APT_SCH,              !- Name
    Fraction,                 !- Schedule Type Limits Name
    Through: 12/31,           !- Field 1
    For: AllDays,             !- Field 2
    Until: 4:00,              !- Field 3
    0.011316031,              !- Field 4
    Until: 5:00,              !- Field 5
    0.033948092,              !- Field 6
    Until: 6:00,              !- Field 7
    0.0735542,                !- Field 8
    Until: 7:00,              !- Field 9
    0.079212215,              !- Field 10
    Until: 8:00,              !- Field 11
    0.0735542,                !- Field 12
    Until: 9:00,              !- Field 13
    0.033948092,              !- Field 14
    Until: 15:00,             !- Field 15
    0.022632061,              !- Field 16
    Until: 16:00,             !- Field 17
    0.039606108,              !- Field 18
    Until: 17:00,             !- Field 19
    0.079212215,              !- Field 20
    Until: 18:00,             !- Field 21
    0.113160307,              !- Field 22
    Until: 19:00,             !- Field 23
    0.152766415,              !- Field 24
    Until: 21:00,             !- Field 25
    0.181056492,              !- Field 26
    Until: 22:00,             !- Field 27
    0.124476338,              !- Field 28
    Until: 23:00,             !- Field 29
    0.067896184,              !- Field 30
    Until: 24:00,             !- Field 31
    0.028290077;              !- Field 32

Schedule:Compact,
    LTG_COR_SCH,              !- Name
    Fraction,                 !- Schedule Type Limits Name
    Through: 12/31,           !- Field 1
    For: AllDays,             !- Field 2
    Until: 24:00,             !- Field 3
    0.53144;                  !- Field 4

Schedule:Compact,
    LTG_OFF_SCH,              !- Name
    Fraction,                 !- Schedule Type Limits Name
    Through: 12/31,           !- Field 1
    For: SummerDesignDay,     !- Field 2
    Until: 24:00,             !- Field 3
    1,                        !- Field 4
    For: WinterDesignDay,     !- Field 5
    Until: 24:00,             !- Field 6
    0,                        !- Field 7
    For: Weekdays,            !- Field 8
    Until: 8:00,              !- Field 9
    0.18,                     !- Field 10
    Until: 12:00,             !- Field 11
    0.76932,                  !- Field 12
    Until: 13:00,             !- Field 13
    0.68384,                  !- Field 14
    Until: 17:00,             !- Field 15
    0.76932,                  !- Field 16
    Until: 24:00,             !- Field 17
    0.18,                     !- Field 18
    For: AllOtherDays,        !- Field 19
    Until: 24:00,             !- Field 20
    0.18;                     !- Field 21

Schedule:Compact,
    EQP_APT_SCH,              !- Name
    Fraction,                 !- Schedule Type Limits Name
    Through: 12/31,           !- Field 1
    For: AllDays,             !- Field 2
    Until: 1:00,              !- Field 3
    0.45,                     !- Field 4
    Until: 2:00,              !- Field 5
    0.41,                     !- Field 6
    Until: 3:00,              !- Field 7
    0.39,                     !- Field 8
    Until: 5:00,              !- Field 9
    0.38,                     !- Field 10
    Until: 6:00,              !- Field 11
    0.43,                     !- Field 12
    Until: 7:00,              !- Field 13
    0.54,                     !- Field 14
    Until: 8:00,              !- Field 15
    0.65,                     !- Field 16
    Until: 9:00,              !- Field 17
    0.66,                     !- Field 18
    Until: 10:00,             !- Field 19
    0.67,                     !- Field 20
    Until: 11:00,             !- Field 21
    0.69,                     !- Field 22
    Until: 12:00,             !- Field 23
    0.70,                     !- Field 24
    Until: 13:00,             !- Field 25
    0.69,                     !- Field 26
    Until: 14:00,             !- Field 27
    0.66,                     !- Field 28
    Until: 15:00,             !- Field 29
    0.65,                     !- Field 30
    Until: 16:00,             !- Field 31
    0.68,                     !- Field 32
    Until: 17:00,             !- Field 33
    0.80,                     !- Field 34
    Until: 19:00,             !- Field 35
    1.0,                      !- Field 36
    Until: 20:00,             !- Field 37
    0.93,                     !- Field 38
    Until: 21:00,             !- Field 39
    0.89,                     !- Field 40
    Until: 22:00,             !- Field 41
    0.85,                     !- Field 42
    Until: 23:00,             !- Field 43
    0.71,                     !- Field 44
    Until: 24:00,             !- Field 45
    0.58;                     !- Field 46

Schedule:Compact,
    EQP_OFF_SCH,              !- Name
    Fraction,                 !- Schedule Type Limits Name
    Through: 12/31,           !- Field 1
    For: SummerDesignDay,     !- Field 2
    Until: 24:00,             !- Field 3
    1,                        !- Field 4
    For: WinterDesignDay,     !- Field 5
    Until: 24:00,             !- Field 6
    0,                        !- Field 7
    For: Weekdays,            !- Field 8
    Until: 7:00,              !- Field 9
    0.218625,                 !- Field 10
    Until: 8:00,              !- Field 11
    0.33125,                  !- Field 12
    Until: 12:00,             !- Field 13
    0.92575,                  !- Field 14
    Until: 13:00,             !- Field 15
    0.870205,                 !- Field 16
    Until: 17:00,             !- Field 17
    0.92575,                  !- Field 18
    Until: 18:00,             !- Field 19
    0.33125,                  !- Field 20
    Until: 24:00,             !- Field 21
    0.218625,                 !- Field 22
    For AllOtherDays,         !- Field 23
    Until: 24:00,             !- Field 24
    0.218625;                 !- Field 25

Schedule:Compact,
    INF_APT_SCH,              !- Name
    Fraction,                 !- Schedule Type Limits Name
    Through: 12/31,           !- Field 1
    For: AllDays,             !- Field 2
    Until: 24:00,             !- Field 3
    1.0;                      !- Field 4

Schedule:Compact,
    INF_OFF_SCH,              !- Name
    Fraction,                 !- Schedule Type Limits Name
    Through: 12/31,           !- Field 1
    For: AllDays,             !- Field 2
    Until: 24:00,             !- Field 3
    1.0;                      !- Field 4

Schedule:Compact,
    INF_COR_SCH,              !- Name
    Fraction,                 !- Schedule Type Limits Name
    Through: 12/31,           !- Field 1
    For: AllDays,             !- Field 2
    Until: 24:00,             !- Field 3
    1.0;                      !- Field 4

Schedule:Compact,
    INFIL_Door_Opening_SCH,    !- Name
    fraction,                 !- Schedule Type Limits Name
    Through: 12/31,           !- Field 1
    For: AllDays,             !- Field 2
    Until: 06:00,             !- Field 3
    0.0,                      !- Field 4
    Until: 07:00,             !- Field 5
    0.131,                    !- Field 6
    Until: 08:00,             !- Field 7
    1.0,                      !- Field 8
    Until: 17:00,             !- Field 9
    0.131,                    !- Field 10
    Until: 18:00,             !- Field 11
    1.0,                      !- Field 12
    Until: 22:00,             !- Field 13
    0.131,                    !- Field 14
    Until: 24:00,             !- Field 15
    0.0;                      !- Field 16

Schedule:Compact,
    HTGSETP_APT_SCH,          !- Name
    Temperature,              !- Schedule Type Limits Name
    THROUGH: 12/31,           !- Field 1
    FOR:AllDays,              !- Field 2
    UNTIL: 24:00,             !- Field 3
    21.1;                     !- Field 4

Schedule:Compact,
    CLGSETP_APT_SCH,          !- Name
    Temperature,              !- Schedule Type Limits Name
    THROUGH: 12/31,           !- Field 1
    FOR:AllDays,              !- Field 2
    UNTIL: 24:00,             !- Field 3
    24;                       !- Field 4

Schedule:Compact,
    S HTGSETP_APT_SCH,        !- Name
    Temperature,              !- Schedule Type Limits Name
    THROUGH: 12/31,           !- Field 1
    FOR:AllDays,              !- Field 2
    UNTIL: 24:00,             !- Field 3
    21.1;                     !- Field 4

Schedule:Compact,
    S CLGSETP_APT_SCH,        !- Name
    Temperature,              !- Schedule Type Limits Name
    THROUGH: 12/31,           !- Field 1
    FOR:AllDays,              !- Field 2
    UNTIL: 24:00,             !- Field 3
    24;                       !- Field 4

Schedule:Compact,
    N HTGSETP_APT_SCH,        !- Name
    Temperature,              !- Schedule Type Limits Name
    THROUGH: 12/31,           !- Field 1
    FOR:AllDays,              !- Field 2
    UNTIL: 24:00,             !- Field 3
    21.1;                     !- Field 4

Schedule:Compact,
    N CLGSETP_APT_SCH,        !- Name
    Temperature,              !- Schedule Type Limits Name
    THROUGH: 12/31,           !- Field 1
    FOR:AllDays,              !- Field 2
    UNTIL: 24:00,             !- Field 3
    24;                       !- Field 4

Schedule:Compact,
    HTGSETP_OFF_SCH_NO_OPTIMUM,    !- Name
    Temperature,              !- Schedule Type Limits Name
    THROUGH: 12/31,           !- Field 1
    FOR: WinterDesignDay,     !- Field 2
    UNTIL: 7:00,              !- Field 3
    15.6,                     !- Field 4
    UNTIL: 8:00,              !- Field 5
    18.3,                     !- Field 6
    UNTIL:17:00,              !- Field 7
    21.1,                     !- Field 8
    UNTIL: 18:00,             !- Field 9
    18.3,                     !- Field 10
    UNTIL: 24:00,             !- Field 11
    15.6,                     !- Field 12
    FOR: Weekdays,            !- Field 13
    UNTIL: 7:00,              !- Field 14
    15.6,                     !- Field 15
    UNTIL: 8:00,              !- Field 16
    21.1,                     !- Field 17
    UNTIL:17:00,              !- Field 18
    21.1,                     !- Field 19
    UNTIL: 18:00,             !- Field 20
    18.3,                     !- Field 21
    UNTIL: 24:00,             !- Field 22
    15.6,                     !- Field 23
    FOR: SummerDesignDay AllOtherDays,    !- Field 24
    UNTIL: 24:00,             !- Field 25
    15.6;                     !- Field 26

Schedule:Compact,
    HTGSETP_OFF_SCH_NO_OPTIMUM_W_SB,    !- Name
    Temperature,              !- Schedule Type Limits Name
    Through: 12/31,           !- Field 1
    For: Weekdays,            !- Field 2
    Until: 01:00,             !- Field 3
    15.6,                     !- Field 4
    Until: 02:00,             !- Field 5
    15.6,                     !- Field 6
    Until: 03:00,             !- Field 7
    15.6,                     !- Field 8
    Until: 04:00,             !- Field 9
    15.6,                     !- Field 10
    Until: 05:00,             !- Field 11
    15.6,                     !- Field 12
    Until: 06:00,             !- Field 13
    15.6,                     !- Field 14
    Until: 07:00,             !- Field 15
    15.6,                     !- Field 16
    Until: 08:00,             !- Field 17
    21.1,                     !- Field 18
    Until: 09:00,             !- Field 19
    21.1,                     !- Field 20
    Until: 10:00,             !- Field 21
    21.1,                     !- Field 22
    Until: 11:00,             !- Field 23
    21.1,                     !- Field 24
    Until: 12:00,             !- Field 25
    21.1,                     !- Field 26
    Until: 13:00,             !- Field 27
    20.5444444444444,         !- Field 28
    Until: 14:00,             !- Field 29
    21.1,                     !- Field 30
    Until: 15:00,             !- Field 31
    20.5444444444444,         !- Field 32
    Until: 16:00,             !- Field 33
    21.1,                     !- Field 34
    Until: 17:00,             !- Field 35
    21.1,                     !- Field 36
    Until: 18:00,             !- Field 37
    18.3,                     !- Field 38
    Until: 19:00,             !- Field 39
    15.6,                     !- Field 40
    Until: 20:00,             !- Field 41
    15.6,                     !- Field 42
    Until: 21:00,             !- Field 43
    15.6,                     !- Field 44
    Until: 22:00,             !- Field 45
    15.6,                     !- Field 46
    Until: 23:00,             !- Field 47
    15.6,                     !- Field 48
    Until: 24:00,             !- Field 49
    15.6,                     !- Field 50
    For: WinterDesignDay,     !- Field 51
    Until: 7:00,              !- Field 52
    15.6,                     !- Field 53
    Until: 8:00,              !- Field 54
    18.3,                     !- Field 55
    Until:17:00,              !- Field 56
    21.1,                     !- Field 57
    Until: 18:00,             !- Field 58
    18.3,                     !- Field 59
    Until: 24:00,             !- Field 60
    15.6,                     !- Field 61
    For: SummerDesignDay,     !- Field 62
    Until: 24:00,             !- Field 63
    15.6,                     !- Field 64