!-Generator IDFEditor 1.51
!-Option SortedOrder UseSpecialFormat
!-NOTE: All comments with '!-' are ignored by the IDFEditor and are generated automatically.
!-      Use '!' comments if they need to be retained when using the IDFEditor.
!-   ===========  ALL OBJECTS IN CLASS: VERSION ===========

  Version,24.1;

!-   ===========  ALL OBJECTS IN CLASS: SIMULATIONCONTROL ===========

  SimulationControl,
    Yes,                     !- Do Zone Sizing Calculation
    Yes,                     !- Do System Sizing Calculation
    Yes,                     !- Do Plant Sizing Calculation
    No,                      !- Run Simulation for Sizing Periods
    YES,                     !- Run Simulation for Weather File Run Periods
    No,                      !- Do HVAC Sizing Simulation for Sizing Periods
    1;                       !- Maximum Number of HVAC Sizing Simulation Passes

!-   ===========  ALL OBJECTS IN CLASS: BUILDING ===========

  Building,
    RetailStripmall,         !- Name
    0.0000,                  !- North Axis {deg}
    City,                    !- Terrain
    0.0400,                  !- Loads Convergence Tolerance Value {W}
    0.2000,                  !- Temperature Convergence Tolerance Value {deltaC}
    FullInteriorAndExterior, !- Solar Distribution
    15,                      !- Maximum Number of Warmup Days
    6;                       !- Minimum Number of Warmup Days

!-   ===========  ALL OBJECTS IN CLASS: SHADOWCALCULATION ===========

  ShadowCalculation,
    PolygonClipping,         !- Shading Calculation Method
    Periodic,                !- Shading Calculation Update Frequency Method
    30,                      !- Shading Calculation Update Frequency
    200;                     !- Maximum Figures in Shadow Overlap Calculations

!-   ===========  ALL OBJECTS IN CLASS: SURFACECONVECTIONALGORITHM:INSIDE ===========

  SurfaceConvectionAlgorithm:Inside,TARP;

!-   ===========  ALL OBJECTS IN CLASS: SURFACECONVECTIONALGORITHM:OUTSIDE ===========

  SurfaceConvectionAlgorithm:Outside,TARP;

!-   ===========  ALL OBJECTS IN CLASS: HEATBALANCEALGORITHM ===========

  HeatBalanceAlgorithm,ConductionTransferFunction,200.0000;

!-   ===========  ALL OBJECTS IN CLASS: TIMESTEP ===========

  Timestep,4;

!-   ===========  ALL OBJECTS IN CLASS: CONVERGENCELIMITS ===========

  ConvergenceLimits,
    15,                      !- Minimum System Timestep {minutes}
    5;                       !- Maximum HVAC Iterations

!-   ===========  ALL OBJECTS IN CLASS: SITE:LOCATION ===========

  Site:Location,
    Denver-Aurora-Buckley.AFB_CO_USA WMO=724695,  !- Name
    39.72,                   !- Latitude {deg}
    -104.75,                 !- Longitude {deg}
    -7.00,                   !- Time Zone {hr}
    1726.00;                 !- Elevation {m}

!-   ===========  ALL OBJECTS IN CLASS: SIZINGPERIOD:DESIGNDAY ===========

  SizingPeriod:DesignDay,
    Denver-Aurora-Buckley.AFB_CO_USA Ann Htg 99.6% Condns DB,  !- Name
    12,                      !- Month
    21,                      !- Day of Month
    WinterDesignDay,         !- Day Type
    -17.9,                   !- Maximum Dry-Bulb Temperature {C}
    0.0,                     !- Daily Dry-Bulb Temperature Range {deltaC}
    DefaultMultipliers,      !- Dry-Bulb Temperature Range Modifier Type
    ,                        !- Dry-Bulb Temperature Range Modifier Day Schedule Name
    Wetbulb,                 !- Humidity Condition Type
    -17.9,                   !- Wetbulb or DewPoint at Maximum Dry-Bulb {C}
    ,                        !- Humidity Condition Day Schedule Name
    ,                        !- Humidity Ratio at Maximum Dry-Bulb {kgWater/kgDryAir}
    ,                        !- Enthalpy at Maximum Dry-Bulb {J/kg}
    ,                        !- Daily Wet-Bulb Temperature Range {deltaC}
    82237.,                  !- Barometric Pressure {Pa}
    2.5,                     !- Wind Speed {m/s}
    180,                     !- Wind Direction {deg}
    No,                      !- Rain Indicator
    No,                      !- Snow Indicator
    No,                      !- Daylight Saving Time Indicator
    ASHRAEClearSky,          !- Solar Model Indicator
    ,                        !- Beam Solar Day Schedule Name
    ,                        !- Diffuse Solar Day Schedule Name
    ,                        !- ASHRAE Clear Sky Optical Depth for Beam Irradiance (taub) {dimensionless}
    ,                        !- ASHRAE Clear Sky Optical Depth for Diffuse Irradiance (taud) {dimensionless}
    0.00;                    !- Sky Clearness

  SizingPeriod:DesignDay,
    Denver-Aurora-Buckley.AFB_CO_USA Ann Clg .4% Condns DB=>MWB,  !- Name
    7,                       !- Month
    21,                      !- Day of Month
    SummerDesignDay,         !- Day Type
    33.9,                    !- Maximum Dry-Bulb Temperature {C}
    14.8,                    !- Daily Dry-Bulb Temperature Range {deltaC}
    DefaultMultipliers,      !- Dry-Bulb Temperature Range Modifier Type
    ,                        !- Dry-Bulb Temperature Range Modifier Day Schedule Name
    Wetbulb,                 !- Humidity Condition Type
    15,                      !- Wetbulb or DewPoint at Maximum Dry-Bulb {C}
    ,                        !- Humidity Condition Day Schedule Name
    ,                        !- Humidity Ratio at Maximum Dry-Bulb {kgWater/kgDryAir}
    ,                        !- Enthalpy at Maximum Dry-Bulb {J/kg}
    ,                        !- Daily Wet-Bulb Temperature Range {deltaC}
    82237.,                  !- Barometric Pressure {Pa}
    3.6,                     !- Wind Speed {m/s}
    30,                      !- Wind Direction {deg}
    No,                      !- Rain Indicator
    No,                      !- Snow Indicator
    No,                      !- Daylight Saving Time Indicator
    ASHRAETau,               !- Solar Model Indicator
    ,                        !- Beam Solar Day Schedule Name
    ,                        !- Diffuse Solar Day Schedule Name
    0.423,                   !- ASHRAE Clear Sky Optical Depth for Beam Irradiance (taub) {dimensionless}
    2.020;                   !- ASHRAE Clear Sky Optical Depth for Diffuse Irradiance (taud) {dimensionless}

!-   ===========  ALL OBJECTS IN CLASS: RUNPERIOD ===========

  RunPeriod,
    RUNPERIOD 1,             !- Name
    1,                       !- Begin Month
    1,                       !- Begin Day of Month
    ,                        !- Begin Year
    1,                       !- End Month
    31,                      !- End Day of Month
    ,                        !- End Year
    Sunday,                  !- Day of Week for Start Day
    No,                      !- Use Weather File Holidays and Special Days
    No,                      !- Use Weather File Daylight Saving Period
    No,                      !- Apply Weekend Holiday Rule
    Yes,                     !- Use Weather File Rain Indicators
    Yes;                     !- Use Weather File Snow Indicators

  RunPeriod,
    RUNPERIOD 2,             !- Name
    4,                       !- Begin Month
    1,                       !- Begin Day of Month
    ,                        !- Begin Year
    4,                       !- End Month
    30,                      !- End Day of Month
    ,                        !- End Year
    Sunday,                  !- Day of Week for Start Day
    No,                      !- Use Weather File Holidays and Special Days
    No,                      !- Use Weather File Daylight Saving Period
    No,                      !- Apply Weekend Holiday Rule
    Yes,                     !- Use Weather File Rain Indicators
    Yes;                     !- Use Weather File Snow Indicators

  RunPeriod,
    RUNPERIOD 3,             !- Name
    7,                       !- Begin Month
    1,                       !- Begin Day of Month
    ,                        !- Begin Year
    7,                       !- End Month
    31,                      !- End Day of Month
    ,                        !- End Year
    Sunday,                  !- Day of Week for Start Day
    No,                      !- Use Weather File Holidays and Special Days
    No,                      !- Use Weather File Daylight Saving Period
    No,                      !- Apply Weekend Holiday Rule
    Yes,                     !- Use Weather File Rain Indicators
    Yes;                     !- Use Weather File Snow Indicators

!-   ===========  ALL OBJECTS IN CLASS: RUNPERIODCONTROL:SPECIALDAYS ===========

  RunPeriodControl:SpecialDays,
    New Years Day,           !- Name
    January 1,               !- Start Date
    1,                       !- Duration {days}
    Holiday;                 !- Special Day Type

  RunPeriodControl:SpecialDays,
    Veterans Day,            !- Name
    November 11,             !- Start Date
    1,                       !- Duration {days}
    Holiday;                 !- Special Day Type

  RunPeriodControl:SpecialDays,
    Christmas,               !- Name
    December 25,             !- Start Date
    1,                       !- Duration {days}
    Holiday;                 !- Special Day Type

  RunPeriodControl:SpecialDays,
    Independence Day,        !- Name
    July 4,                  !- Start Date
    1,                       !- Duration {days}
    Holiday;                 !- Special Day Type

  RunPeriodControl:SpecialDays,
    MLK Day,                 !- Name
    3rd Monday in January,   !- Start Date
    1,                       !- Duration {days}
    Holiday;                 !- Special Day Type

  RunPeriodControl:SpecialDays,
    Presidents Day,          !- Name
    3rd Monday in February,  !- Start Date
    1,                       !- Duration {days}
    Holiday;                 !- Special Day Type

  RunPeriodControl:SpecialDays,
    Memorial Day,            !- Name
    Last Monday in May,      !- Start Date
    1,                       !- Duration {days}
    Holiday;                 !- Special Day Type

  RunPeriodControl:SpecialDays,
    Labor Day,               !- Name
    1st Monday in September, !- Start Date
    1,                       !- Duration {days}
    Holiday;                 !- Special Day Type

  RunPeriodControl:SpecialDays,
    Columbus Day,            !- Name
    2nd Monday in October,   !- Start Date
    1,                       !- Duration {days}
    Holiday;                 !- Special Day Type

  RunPeriodControl:SpecialDays,
    Thanksgiving,            !- Name
    4th Thursday in November,!- Start Date
    1,                       !- Duration {days}
    Holiday;                 !- Special Day Type

!-   ===========  ALL OBJECTS IN CLASS: RUNPERIODCONTROL:DAYLIGHTSAVINGTIME ===========

  RunPeriodControl:DaylightSavingTime,
    2nd Sunday in March,     !- Start Date
    1st Sunday in November;  !- End Date

!-   ===========  ALL OBJECTS IN CLASS: SITE:GROUNDTEMPERATURE:FCFACTORMETHOD ===========

  Site:GroundTemperature:FCfactorMethod,7.1,3.0,-1.0,0.8,-0.2,4.8,6.1,13.7,22.2,22.7,21.7,18.5;

!-   ===========  ALL OBJECTS IN CLASS: SITE:WATERMAINSTEMPERATURE ===========

  Site:WaterMainsTemperature,
    Correlation,             !- Calculation Method
    ,                        !- Temperature Schedule Name
    9.95,                    !- Annual Average Outdoor Air Temperature {C}
    23.7;                    !- Maximum Difference In Monthly Average Outdoor Air Temperatures {deltaC}

!-   ===========  ALL OBJECTS IN CLASS: SCHEDULETYPELIMITS ===========

  ScheduleTypeLimits,
    Any Number;              !- Name

  ScheduleTypeLimits,
    Fraction,                !- Name
    0.0,                     !- Lower Limit Value
    1.0,                     !- Upper Limit Value
    CONTINUOUS;              !- Numeric Type

  ScheduleTypeLimits,
    Temperature,             !- Name
    -60,                     !- Lower Limit Value
    200,                     !- Upper Limit Value
    CONTINUOUS;              !- Numeric Type

  ScheduleTypeLimits,
    On/Off,                  !- Name
    0,                       !- Lower Limit Value
    1,                       !- Upper Limit Value
    DISCRETE;                !- Numeric Type

  ScheduleTypeLimits,
    Control Type,            !- Name
    0,                       !- Lower Limit Value
    4,                       !- Upper Limit Value
    DISCRETE;                !- Numeric Type

  ScheduleTypeLimits,
    Humidity,                !- Name
    10,                      !- Lower Limit Value
    90,                      !- Upper Limit Value
    CONTINUOUS;              !- Numeric Type

  ScheduleTypeLimits,
    Number;                  !- Name

!-   ===========  ALL OBJECTS IN CLASS: SCHEDULE:COMPACT ===========

  Schedule:Compact,
    Type1_OCC_SCH,           !- Name
    Fraction,                !- Schedule Type Limits Name
    Through: 12/31,          !- Field 1
    For: Monday Tuesday Wednesday Thursday, !- Field 2
    Until: 08:00,0.0,        !- Field 3
    Until: 10:00,0.05,       !- Field 5
    Until: 12:00,0.1,        !- Field 7
    Until: 13:00,0.2,        !- Field 9
    Until: 15:00,0.4,        !- Field 11
    Until: 17:00,0.25,       !- Field 13
    Until: 20:00,0.50,       !- Field 15
    Until: 23:00,0.3,        !- Field 17
    Until: 24:00,0.05,       !- Field 19
    For: SummerDesignDay,    !- Field 21
    Until: 24:00,1.0,        !- Field 22
    For: Friday Saturday,    !- Field 24
    Until: 01:00,0.05,       !- Field 25
    Until: 09:00,0.0,        !- Field 27
    Until: 10:00,0.05,       !- Field 29
    Until: 12:00,0.1,        !- Field 31
    Until: 13:00,0.2,        !- Field 33
    Until: 14:00,0.6,        !- Field 35
    Until: 15:00,0.4,        !- Field 37
    Until: 17:00,0.25,       !- Field 39
    Until: 20:00,0.5,        !- Field 41
    Until: 23:00,0.3,        !- Field 43
    Until: 24:00,0.2,        !- Field 45
    For: WinterDesignDay,    !- Field 47
    Until: 24:00,0.0,        !- Field 48
    For: Sunday Holidays AllOtherDays, !- Field 50
    Until: 08:00,0.0,        !- Field 51
    Until: 10:00,0.05,       !- Field 53
    Until: 11:00,0.1,        !- Field 55
    Until: 12:00,0.2,        !- Field 57
    Until: 13:00,0.4,        !- Field 59
    Until: 14:00,0.6,        !- Field 61
    Until: 16:00,0.4,        !- Field 63
    Until: 17:00,0.3,        !- Field 65
    Until: 19:00,0.6,        !- Field 67
    Until: 21:00,0.4,        !- Field 69
    Until: 22:00,0.3,        !- Field 71
    Until: 23:00,0.2,        !- Field 73
    Until: 24:00,0.05;       !- Field 75

  Schedule:Compact,
    Type2_OCC_SCH,           !- Name
    Fraction,                !- Schedule Type Limits Name
    Through: 12/31,          !- Field 1
    For: Weekdays,           !- Field 2
    Until: 08:00,0.0,        !- Field 3
    Until: 09:00,0.05,       !- Field 5
    Until: 12:00,0.1,        !- Field 7
    Until: 13:00,0.2,        !- Field 9
    Until: 14:00,0.4,        !- Field 11
    Until: 15:00,0.30,       !- Field 13
    Until: 17:00,0.20,       !- Field 15
    Until: 19:00,0.5,        !- Field 17
    Until: 20:00,0.2,        !- Field 19
    Until: 21:00,0.05,       !- Field 21
    Until: 24:00,0.00,       !- Field 23
    For: SummerDesignDay,    !- Field 25
    Until: 24:00,1.0,        !- Field 26
    For: Saturday,           !- Field 28
    Until: 08:00,0.0,        !- Field 29
    Until: 09:00,0.05,       !- Field 31
    Until: 11:00,0.1,        !- Field 33
    Until: 12:00,0.2,        !- Field 35
    Until: 13:00,0.4,        !- Field 37
    Until: 14:00,0.6,        !- Field 39
    Until: 15:00,0.4,        !- Field 41
    Until: 18:00,0.3,        !- Field 43
    Until: 19:00,0.05,       !- Field 45
    Until: 24:00,0.0,        !- Field 47
    For: WinterDesignDay,    !- Field 49
    Until: 24:00,0.0,        !- Field 50
    For: Sunday Holidays AllOtherDays, !- Field 52
    Until: 09:00,0.0,        !- Field 53
    Until: 10:00,0.05,       !- Field 55
    Until: 11:00,0.1,        !- Field 57
    Until: 12:00,0.2,        !- Field 59
    Until: 14:00,0.4,        !- Field 61
    Until: 15:00,0.3,        !- Field 63
    Until: 16:00,0.2,        !- Field 65
    Until: 17:00,0.1,        !- Field 67
    Until: 18:00,0.05,       !- Field 69
    Until: 24:00,0.0;        !- Field 71

  Schedule:Compact,
    Type3_OCC_SCH,           !- Name
    Fraction,                !- Schedule Type Limits Name
    Through: 12/31,          !- Field 1
    For: Weekdays,           !- Field 2
    Until: 09:00,0.0,        !- Field 3
    Until: 10:00,0.11,       !- Field 5
    Until: 11:00,0.11,       !- Field 7
    Until: 12:00,0.43,       !- Field 9
    Until: 13:00,0.46,       !- Field 11
    Until: 14:00,0.71,       !- Field 13
    Until: 15:00,0.50,       !- Field 15
    Until: 16:00,0.69,       !- Field 17
    Until: 17:00,0.54,       !- Field 19
    Until: 18:00,0.71,       !- Field 21
    Until: 19:00,0.34,       !- Field 23
    Until: 20:00,0.26,       !- Field 25
    Until: 21:00,0.11,       !- Field 27
    Until: 24:00,0.00,       !- Field 29
    For: SummerDesignDay,    !- Field 31
    Until: 24:00,1.0,        !- Field 32
    For: Saturday,           !- Field 34
    Until: 09:00,0.0,        !- Field 35
    Until: 10:00,0.11,       !- Field 37
    Until: 11:00,0.11,       !- Field 39
    Until: 12:00,0.58,       !- Field 41
    Until: 13:00,0.71,       !- Field 43
    Until: 14:00,0.74,       !- Field 45
    Until: 15:00,0.77,       !- Field 47
    Until: 16:00,0.80,       !- Field 49
    Until: 17:00,0.74,       !- Field 51
    Until: 18:00,0.54,       !- Field 53
    Until: 19:00,0.11,       !- Field 55
    Until: 24:00,0.00,       !- Field 57
    For: WinterDesignDay,    !- Field 59
    Until: 24:00,0.0,        !- Field 60
    For: Sunday Holidays AllOtherDays, !- Field 62
    Until: 10:00,0.0,        !- Field 63
    Until: 11:00,0.11,       !- Field 65
    Until: 12:00,0.11,       !- Field 67
    Until: 13:00,0.43,       !- Field 69
    Until: 14:00,0.46,       !- Field 71
    Until: 15:00,0.5,        !- Field 73
    Until: 16:00,0.69,       !- Field 75
    Until: 17:00,0.34,       !- Field 77
    Until: 18:00,0.11,       !- Field 79
    Until: 21:00,0.0,        !- Field 81
    Until: 23:00,0.0,        !- Field 83
    Until: 24:00,0.00;       !- Field 85

  Schedule:Compact,
    Type1_LIGHT_SCH,         !- Name
    Fraction,                !- Schedule Type Limits Name
    Through: 12/31,          !- Field 1
    For: Monday Tuesday Wednesday Thursday, !- Field 2
    Until: 8:00,0.05,        !- Field 3
    Until: 9:00,0.04991,     !- Field 5
    Until: 10:00,0.4991,     !- Field 7
    Until: 23:00,0.94829,    !- Field 9
    Until: 24:00,0.4991,     !- Field 11
    For: Friday Saturday,    !- Field 13
    Until: 1:00,0.4991,      !- Field 14
    Until: 9:00,0.05,        !- Field 16
    Until: 10:00,0.4991,     !- Field 18
    Until: 24:00,0.94829,    !- Field 20
    For: SummerDesignDay,    !- Field 22
    Until: 24:00,1,          !- Field 23
    For: WinterDesignDay,    !- Field 25
    Until: 24:00,0,          !- Field 26
    For: Sunday Holidays AllOtherDays, !- Field 28
    Until: 8:00,0.05,        !- Field 29
    Until: 9:00,0.04991,     !- Field 31
    Until: 10:00,0.4991,     !- Field 33
    Until: 23:00,0.94829,    !- Field 35
    Until: 24:00,0.4991;     !- Field 37

  Schedule:Compact,
    Type2_LIGHT_SCH,         !- Name
    Fraction,                !- Schedule Type Limits Name
    Through: 12/31,          !- Field 1
    For: Weekdays,           !- Field 2
    Until: 8:00,0.05,        !- Field 3
    Until: 9:00,0.5,         !- Field 5
    Until: 20:00,0.95,       !- Field 7
    Until: 21:00,0.5,        !- Field 9
    Until: 24:00,0.05,       !- Field 11
    For: Saturday,           !- Field 13
    Until: 8:00,0.05,        !- Field 14
    Until: 9:00,0.5,         !- Field 16
    Until: 18:00,0.95,       !- Field 18
    Until: 19:00,0.5,        !- Field 20
    Until: 24:00,0.05,       !- Field 22
    For: SummerDesignDay,    !- Field 24
    Until: 24:00,1,          !- Field 25
    For: WinterDesignDay,    !- Field 27
    Until: 24:00,0,          !- Field 28
    For: Sunday Holidays AllOtherDays, !- Field 30
    Until: 9:00,0.05,        !- Field 31
    Until: 10:00,0.5,        !- Field 33
    Until: 17:00,0.95,       !- Field 35
    Until: 18:00,0.5,        !- Field 37
    Until: 24:00,0.05;       !- Field 39

  Schedule:Compact,
    Type3_LIGHT_SCH,         !- Name
    Fraction,                !- Schedule Type Limits Name
    Through: 12/31,          !- Field 1
    For: Weekdays,           !- Field 2
    Until: 9:00,0.05,        !- Field 3
    Until: 10:00,0.5,        !- Field 5
    Until: 20:00,0.95,       !- Field 7
    Until: 21:00,0.5,        !- Field 9
    Until: 24:00,0.05,       !- Field 11
    For: Saturday,           !- Field 13
    Until: 9:00,0.05,        !- Field 14
    Until: 10:00,0.5,        !- Field 16
    Until: 18:00,0.95,       !- Field 18
    Until: 19:00,0.5,        !- Field 20
    Until: 24:00,0.05,       !- Field 22
    For: SummerDesignDay,    !- Field 24
    Until: 24:00,1,          !- Field 25
    For: WinterDesignDay,    !- Field 27
    Until: 24:00,0,          !- Field 28
    For: Sunday Holidays AllOtherDays, !- Field 30
    Until: 10:00,0.05,       !- Field 31
    Until: 11:00,0.5,        !- Field 33
    Until: 17:00,0.95,       !- Field 35
    Until: 18:00,0.5,        !- Field 37
    Until: 24:00,0.05;       !- Field 39

                             !- Field 6
                             !- Field 44

  Schedule:Compact,
    Type1_EQUIP_SCH,         !- Name
    Fraction,                !- Schedule Type Limits Name
    Through: 12/31,          !- Field 1
    For: Monday Tuesday Wednesday Thursday, !- Field 2
    Until: 08:00,0.04915625, !- Field 3
    Until: 09:00,0.049814375,!- Field 5
    Until: 10:00,0.49814375, !- Field 7
    Until: 23:00,0.89665875, !- Field 9
    Until: 24:00,0.49814375, !- Field 11
    For: Friday Saturday,    !- Field 13
    Until: 01:00,0.49814375, !- Field 14
    Until: 08:00,0.04915625, !- Field 16
    Until: 09:00,0.04915625, !- Field 18
    Until: 10:00,0.49814375, !- Field 20
    Until: 12:00,0.89665875, !- Field 22
    Until: 18:00,0.89665875, !- Field 24
    Until: 19:00,0.89665875, !- Field 26
    Until: 21:00,0.89665875, !- Field 28
    Until: 22:00,0.89665875, !- Field 30
    Until: 24:00,0.89665875, !- Field 32
    For: SummerDesignDay,    !- Field 34
    Until: 24:00,1.0,        !- Field 35
    For: WinterDesignDay,    !- Field 37
    Until: 24:00,0.0,        !- Field 38
    For: Sunday Holidays AllOtherDays, !- Field 40
    Until: 08:00,0.04915625, !- Field 41
    Until: 09:00,0.049814375,!- Field 43
    Until: 10:00,0.49814375, !- Field 45
    Until: 23:00,0.89665875, !- Field 47
    Until: 24:00,0.49814375; !- Field 49

                             !- Field 40

  Schedule:Compact,
    Type2_EQUIP_SCH,         !- Name
    Fraction,                !- Schedule Type Limits Name
    Through: 12/31,          !- Field 1
    For: Weekdays,           !- Field 2
    Until: 07:00,0.04915625, !- Field 3
    Until: 08:00,0.04915625, !- Field 5
    Until: 09:00,0.49814375, !- Field 7
    Until: 20:00,0.89665875, !- Field 9
    Until: 21:00,0.49814375, !- Field 11
    Until: 24:00,0.04915625, !- Field 13
    For: Saturday,           !- Field 15
    Until: 07:00,0.04915625, !- Field 16
    Until: 08:00,0.04915625, !- Field 18
    Until: 09:00,0.49814375, !- Field 20
    Until: 12:00,0.89665875, !- Field 22
    Until: 18:00,0.89665875, !- Field 24
    Until: 19:00,0.49814375, !- Field 26
    Until: 24:00,0.04915625, !- Field 28
    For: SummerDesignDay,    !- Field 30
    Until: 24:00,1.0,        !- Field 31
    For: WinterDesignDay,    !- Field 33
    Until: 24:00,0.0,        !- Field 34
    For: Sunday Holidays AllOtherDays, !- Field 36
    Until: 08:00,0.04915625, !- Field 37
    Until: 09:00,0.049814375,!- Field 39
    Until: 10:00,0.49814375, !- Field 41
    Until: 17:00,0.89665875, !- Field 43
    Until: 18:00,0.49814375, !- Field 45
    Until: 24:00,0.04915625; !- Field 47

  Schedule:Compact,
    Type3_EQUIP_SCH,         !- Name
    Fraction,                !- Schedule Type Limits Name
    Through: 12/31,          !- Field 1
    For: Weekdays,           !- Field 2
    Until: 08:00,0.04915625, !- Field 3
    Until: 09:00,0.04915625, !- Field 5
    Until: 10:00,0.49814375, !- Field 7
    Until: 20:00,0.89665875, !- Field 9
    Until: 21:00,0.49814375, !- Field 11
    Until: 24:00,0.04915625, !- Field 13
    For: Saturday,           !- Field 15
    Until: 08:00,0.04915625, !- Field 16
    Until: 09:00,0.04915625, !- Field 18
    Until: 10:00,0.49814375, !- Field 20
    Until: 12:00,0.89665875, !- Field 22
    Until: 18:00,0.89665875, !- Field 24
    Until: 19:00,0.49814375, !- Field 26
    Until: 21:00,0.04915625, !- Field 28
    Until: 22:00,0.04915625, !- Field 30
    Until: 24:00,0.04915625, !- Field 32
    For: SummerDesignDay,    !- Field 34
    Until: 24:00,1.0,        !- Field 35
    For: WinterDesignDay,    !- Field 37
    Until: 24:00,0.0,        !- Field 38
    For: Sunday Holidays AllOtherDays, !- Field 40
    Until: 09:00,0.04915625, !- Field 41
    Until: 10:00,0.04915625, !- Field 43
    Until: 11:00,0.49814375, !- Field 45
    Until: 17:00,0.89665875, !- Field 47
    Until: 18:00,0.49814375, !- Field 49
    Until: 24:00,0.04915625; !- Field 51

  Schedule:Compact,
    Type1_Infil_SCH,         !- Name
    fraction,                !- Schedule Type Limits Name
    Through: 12/31,          !- Field 1
    For: Monday Tuesday Wednesday Thursday SummerDesignDay, !- Field 2
    Until: 08:00,1.0,        !- Field 3
    Until: 24:00,0.25,       !- Field 5
    For: Friday Saturday,    !- Field 7
    Until: 01:00,0.25,       !- Field 8
    Until: 08:00,1.0,        !- Field 10
    Until: 24:00,0.25,       !- Field 12
    For: WinterDesignDay,    !- Field 14
    Until: 01:00,0.25,       !- Field 15
    Until: 08:00,1.0,        !- Field 17
    Until: 24:00,0.25,       !- Field 19
    For: Sunday Holidays AllOtherDays, !- Field 21
    Until: 08:00,1.0,        !- Field 22
    Until: 24:00,0.25;       !- Field 24

  Schedule:Compact,
    Type2_Infil_SCH,         !- Name
    fraction,                !- Schedule Type Limits Name
    Through: 12/31,          !- Field 1
    For: Weekdays SummerDesignDay, !- Field 2
    Until: 07:00,1.0,        !- Field 3
    Until: 21:00,0.25,       !- Field 5
    Until: 24:00,1.0,        !- Field 7
    For: Saturday,           !- Field 9
    Until: 07:00,1.0,        !- Field 10
    Until: 19:00,0.25,       !- Field 12
    Until: 24:00,1.0,        !- Field 14
    For: WinterDesignDay,    !- Field 16
    Until: 07:00,1.0,        !- Field 17
    Until: 19:00,0.25,       !- Field 19
    Until: 24:00,1.0,        !- Field 21
    For: Sunday Holidays AllOtherDays, !- Field 23
    Until: 08:00,1.0,        !- Field 24
    Until: 18:00,0.25,       !- Field 26
    Until: 24:00,1.0;        !- Field 28

  Schedule:Compact,
    Type3_Infil_SCH,         !- Name
    fraction,                !- Schedule Type Limits Name
    Through: 12/31,          !- Field 1
    For: Weekdays SummerDesignDay, !- Field 2
    Until: 08:00,1.0,        !- Field 3
    Until: 21:00,0.25,       !- Field 5
    Until: 24:00,1.0,        !- Field 7
    For: Saturday,           !- Field 9
    Until: 08:00,1.0,        !- Field 10
    Until: 19:00,0.25,       !- Field 12
    Until: 24:00,1.0,        !- Field 14
    For: WinterDesignDay,    !- Field 16
    Until: 08:00,1.0,        !- Field 17
    Until: 19:00,0.25,       !- Field 19
    Until: 24:00,1.0,        !- Field 21
    For: Sunday Holidays AllOtherDays, !- Field 23
    Until: 09:00,1.0,        !- Field 24
    Until: 18:00,0.25,       !- Field 26
    Until: 24:00,1.0;        !- Field 28

  Schedule:Compact,
    INFIL_Door_Opening_SCH,  !- Name
    fraction,                !- Schedule Type Limits Name
    Through: 12/31,          !- Field 1
    For: AllDays,            !- Field 2
    Until: 08:00,0.0,        !- Field 3
    Until: 12:00,0.131,      !- Field 5
    Until: 18:00,1.0,        !- Field 7
    Until: 20:00,0.131,      !- Field 9
    Until: 24:00,0.0;        !- Field 11

  Schedule:Compact,
    Type1_HTGSETP_SCH_YES_OPTIMUM,  !- Name
    Temperature,             !- Schedule Type Limits Name
    Through: 12/31,          !- Field 1
    For: Monday Tuesday Wednesday Thursday WinterDesignDay, !- Field 2
    Until: 01:00,21.11,      !- Field 3
    Until: 08:00,15.56,      !- Field 5
    Until: 09:00,18.33,      !- Field 7
    Until: 23:00,21.11,      !- Field 9
    Until: 24:00,21.11,      !- Field 11
    For SummerDesignDay,     !- Field 13
    Until: 24:00,15.56,      !- Field 14
    For: Friday Saturday,    !- Field 16
    Until: 08:00,15.56,      !- Field 17
    Until: 09:00,18.33,      !- Field 19
    Until: 23:00,21.11,      !- Field 21
    Until: 24:00,21.11,      !- Field 23
    For: Sunday Holidays AllOtherDays, !- Field 25
    Until:  8:00,15.56,      !- Field 26
    Until:  9:00,18.33,      !- Field 28
    Until: 23:00,21.11,      !- Field 30
    Until: 24:00,21.11;      !- Field 32

  Schedule:Compact,
    Type1_HTGSETP_SCH_NO_OPTIMUM,  !- Name
    Temperature,             !- Schedule Type Limits Name
    Through: 12/31,          !- Field 1
    For: WinterDesignDay,    !- Field 2
    Until: 01:00,21.11,      !- Field 3
    Until: 08:00,15.56,      !- Field 5
    Until: 09:00,18.33,      !- Field 7
    Until: 23:00,21.11,      !- Field 9
    Until: 24:00,21.11,      !- Field 11
    For: Monday Tuesday Wednesday Thursday, !- Field 13
    Until: 01:00,21.11,      !- Field 14
    Until: 08:00,15.56,      !- Field 16
    Until: 09:00,21.11,      !- Field 18
    Until: 23:00,21.11,      !- Field 20
    Until: 24:00,21.11,      !- Field 22
    For SummerDesignDay,     !- Field 24
    Until: 24:00,15.56,      !- Field 25
    For: Friday Saturday,    !- Field 27
    Until: 08:00,15.56,      !- Field 28
    Until: 09:00,21.11,      !- Field 30