!-Generator IDFEditor 1.34
!-Option OriginalOrderTop UseSpecialFormat
!-NOTE: All comments with '!-' are ignored by the IDFEditor and are generated automatically.
!-      Use '!' comments if they need to be retained when using the IDFEditor.
! HeatPumpVSAS.idf
! Basic file description:  Air Source Integrated Heat pump (w/ 10% outdoor air max.)
!                          1 story building divided into 3 interior conditioned zones. Roof with no plenum.
!                          No ground contact with floor.
!
! Highlights:              Example of Multi-functional air-source integrated heat pump
!
!
! Simulation Location/Run: Chicago Ohare Intl Ap IL USA WMO=725300, 2 design days, 2 run periods.
!                          Run Control executes two design days (see RUN PERIOD object)
!
! Location:                Chicago, IL
!
! Design Days:             Chicago Ohare Intl Ap IL USA Annual Heating 99%, MaxDB=-16.6°C
!                          Chicago Ohare Intl Ap IL USA Annual Cooling (DB=>MWB) 1%, MaxDB=31.6°C MWB=23°C
!
! Run Period (Weather File): Winter 1/14, Summer 7/7.
!
! Run Control:             No zone or system sizing, design day run control (no weather file simulation)
!
! Building: Single floor rectangular L-shaped building 40 ft south wall, 40 ft west wall, zone height 10 feet.
!           There is a single window in West Zone's south wall. The walls are 1 in stucco over 4 in common brick
!           and gypboard. The roof is a built up roof with 1/2 in stone over 3/8 in felt over 1 in dense insulation
!           supported by 2 in heavy weight concrete. The window is single pane 3mm clear.
!           The window to wall ratio is approxomately 0.07.
!
!           The building is oriented due north.
!
! Floor Area:        130.1 m2 (1403 ft2)
! Number of Stories: 1
!
! Zone Description Details:
!
!       (0,12.192,0)                 (9.144,12.192,0)
!           ________________________________
!          |                                |
!          |                                |
!          |                                |
!          |                                |
!          |           North                |
!          |                                |
!          |                                |
!          |             (6.096,6.096,0)    |
!          |________________________________|____________ (12.192,6.069,0)
!          | (0,6.096,0)        |    (9.144,6.096,0)     |
!          |                    |                        |
!          |                    |                        |
!          |                    |                        |
!          |       West         |         East           |    window = *
!          |                    |                        |
!          |                    |                        |
!          |                    |                        |
!          |___**************___|________________________|
!
!      (0,0,0)             (6.069,0,0)               (12.192,0,0)
!
! Internal gains description:     ZONE West      - lighting is 0 watts, equip is 2928.751 watts, 3 occupants
! Internal gains description:     ZONE North     - lighting is 878.6252 watts, equip is 2928.751 watts, 4 occupants
! Internal gains description:     ZONE East      - lighting is 1464.375 watts, equip is 1464.375 watts, 3 occupants
!
! Interzone Surfaces:             3 interzone surfaces (see diagram)
! Internal Mass:                  None
! People:                         10
! Lights:                         2343 W
! Equipment:                      7323 W
! Windows:                        1
! Detached Shading:               None
! Daylight:                       None
! Natural Ventilation:            None
! Compact Schedules:              Yes
! Solair Distribution:            FullInteriorAndExterior
!
! HVAC:                           UNITARYSYSTEM:HEATPUMP:AIRTOAIR
!                                 Heat pump using a single air loop serving 3 zones.  Heat pump configured with a
!                                 blow through fan, heat pump defrost is timed using a resistive heating element.
!                                 Heating set point during winter months is 20 C during occupied hours,
!                                 15 C set-back otherwise.  Cooling set point at 24 C during occupied hours only.
!                                 Cooling coil off all winter. Heat Pump has a gas supplemental heater.
!
! Zonal Equipment:                DIRECT AIR
! Central Air Handling Equipment: Yes
! System Equipment Autosize:      No
! Purchased Cooling:              No
! Purchased Heating:              No
! Purchased Chilled Water:        No
! Purchased Hot Water:            No
! Coils:                          Coil:Cooling:DX:VariableSpeed, COIL:Heating:DX:VariableSpeed, Coil:Heating:Gas
! Pumps:                          None
! Boilers:                        None
! Chillers:                       None
! Towers:                         None
!
! Results:
! Standard Reports:               None
! Timestep or Hourly Variables:   Timestep
! Time bins Report:               None
! HTML Report:                    None
! Environmental Emissions:        None
! Utility Tariffs:                None

  Version,8.5;
 
!*********** air source integrated heat pump ***********************
  CoilSystem:IntegratedHeatPump:AirSource,
	ASIHP1,     !- Name of an air-source integrated heat pump
	DX Cooling Coil Air Inlet Node,	!- Name of the Indoor Cooling Coil Air Inlet Node
    Heating Coil Air Inlet Node,  !- Indoor Heating Coil Air Inlet Node Name	
	SuppHeating Coil Air Inlet Node,	!- Name of Indoor Cooling Coil Air Outlet Node
    HPOutdoorWaterInletNode, !- Condenser Water Inlet Node Name
    HPOutdoorWaterOutletNode,!- Condenser Water Outlet Node Name
	HPOutdoorWaterOutletNode, !- Name of a water node to monitor the supply water flow amount
	HPOutdoorFanAirOutletNode,  !- Outdoor Coil Air Inlet Node Name
    HPOutdoorAirOutletNode,  !- Outdoor Coil Air Outlet Node Name
	Heat Pump ACDXCoil 1,    !- Coil object Name of space cooling mode 
	Heat Pump DX Heating Coil 1,    !- Coil object Name of space heating mode 
	HPWHOutdoorDXCoilVS,   !- Coil object Name of dedicated water heating mode 
	SCWHCoil1,  !- Coil object Name for combined space cooling and water heating mode w full condensing
	SCDWHCoolCoil1,  !- Coil object Name for cooling part of combined space cooling and water heating mode w desuperheating
	SCDWHWHCoil1,  !- Coil object Name for Water heating part of combined space cooling and water heating mode w desuperheating
	SHDWHHeatCoil1,  !- Coil object Name for space heating part of combined space heating and water heating mode w desuperheating
	SHDWHWHCoil1,  !- Coil object Name for WH part of combined space heating and water heating mode w desuperheating
	23.0,       !-[C],indoor temperature above which indoor overcooling is allowed, 
	28.0,       !-[C],ambient temperature above which indoor overcooling is allowed, 
	20.0,       !-[C],indoor temperature above which water heating has the higher priority
	16.0,       !-[C],ambient temperature above which water heating has the higher priority
	0,          !-0: match space cooling load, 1: match water heating load, in SCWH mode
	1,          !- minimum speed level for SCWH mode
	3.0,        !- [m3], limit of heated water volume before switching from SCDWH to SCWH mode
	1,          !- minimum speed level for SCDWH mode
	600,        !- [s], time limit before turning on electric element in SHDWH mode
	1;          !- minimum speed level for SHDWH mode

!*********** Heat Pump Water Heater Inputs ***********************
  WaterHeater:HeatPump:PumpedCondenser,
    OutdoorHeatPumpWaterHeater,  !- Name
    PlantHPWHSch,            !- Availability Schedule Name
    HPWHTempSch,             !- Compressor Setpoint Temperature Schedule Name
    2.0,                     !- Dead Band Temperature Difference {deltaC}
    HPOutdoorWaterInletNode, !- Condenser Water Inlet Node Name
    HPOutdoorWaterOutletNode,!- Condenser Water Outlet Node Name
    0.00016,                 !- Condenser Water Flow Rate {m3/s}
    0.2685,                  !- Evaporator Air Flow Rate {m3/s}
    OutdoorAirOnly,          !- Inlet Air Configuration
    ,                        !- Air Inlet Node Name
    ,                        !- Air Outlet Node Name
    HPOutdoorAirInletNode,   !- Outdoor Air Node Name
    HPOutdoorAirOutletNode,  !- Exhaust Air Node Name
    ,                        !- Inlet Air Temperature Schedule Name
    ,                        !- Inlet Air Humidity Schedule Name
    ,                        !- Inlet Air Zone Name
    WaterHeater:Mixed,       !- Tank Object Type
    HPWHOutdoorTank,         !- Tank Name
    ,                        !- Tank Use Side Inlet Node Name
    ,                        !- Tank Use Side Outlet Node Name
    CoilSystem:IntegratedHeatPump:AirSource,  !- DX Coil Object Type
    ASIHP1,    				 !- DX Coil Name
    -5.0,                   !- Minimum Inlet Air Temperature for Compressor Operation {C}
    ,                        !- Maximum Inlet Air Temperature for Compressor Operation {C}
    Outdoors,                !- Compressor Location
    ,                        !- Compressor Ambient Temperature Schedule Name
    Fan:OnOff,               !- Fan Object Type, Fan:OnOff
    HPWHOutdoorFan,          !- Fan Name
    BlowThrough,             !- Fan Placement, BlowThrough
    ,                        !- On Cycle Parasitic Electric Load {W}
    ,                        !- Off Cycle Parasitic Electric Load {W}
    ;                        !- Parasitic Heat Rejection Location

  WaterHeater:Mixed,
    HPWHOutdoorTank,         !- Name
    0.3785,                  !- Tank Volume {m3}
    Hot Water Setpoint Temp Schedule,  !- Setpoint Temperature Schedule Name
    2.0,                     !- Deadband Temperature Difference {deltaC}
    82.2222,                 !- Maximum Temperature Limit {C}
    CYCLE,                   !- Heater Control Type
    5000,                    !- Heater Maximum Capacity {W}
    0,                       !- Heater Minimum Capacity {W}
    ,                        !- Heater Ignition Minimum Flow Rate {m3/s}
    ,                        !- Heater Ignition Delay {s}
    ELECTRICITY,             !- Heater Fuel Type
    0.95,                    !- Heater Thermal Efficiency
    ,                        !- Part Load Factor Curve Name
    10,                      !- Off Cycle Parasitic Fuel Consumption Rate {W}
    ELECTRICITY,             !- Off Cycle Parasitic Fuel Type
    0,                       !- Off Cycle Parasitic Heat Fraction to Tank
    30,                      !- On Cycle Parasitic Fuel Consumption Rate {W}
    ELECTRICITY,             !- On Cycle Parasitic Fuel Type
    0,                       !- On Cycle Parasitic Heat Fraction to Tank
    Outdoors,                !- Ambient Temperature Indicator
    ,                        !- Ambient Temperature Schedule Name
    ,                        !- Ambient Temperature Zone Name
    HPWHOutdoorTank OA Node, !- Ambient Temperature Outdoor Air Node Name
    2.0,                     !- Off Cycle Loss Coefficient to Ambient Temperature {W/K}
    1.0,                     !- Off Cycle Loss Fraction to Zone
    2.0,                     !- On Cycle Loss Coefficient to Ambient Temperature {W/K}
    1.0,                     !- On Cycle Loss Fraction to Zone
    0.000379,                !- Peak Use Flow Rate {m3/s}
    Hot Water Demand Schedule,  !- Use Flow Rate Fraction Schedule Name
    ,                        !- Cold Water Supply Temperature Schedule Name
    ,                        !- Use Side Inlet Node Name
    ,                        !- Use Side Outlet Node Name
    ,                        !- Use Side Effectiveness
    HPOutdoorWaterOutletNode,!- Source Side Inlet Node Name
    HPOutdoorWaterInletNode, !- Source Side Outlet Node Name
    0.95;                    !- Source Side Effectiveness

  OutdoorAir:Node,
    HPWHOutdoorTank OA Node; !- Name
	
  OutdoorAir:Node,
    HPOUTDOORAIRINLETNODE; !- Name
	
  OutdoorAir:Node,
    HPOutdoorAirOutletNode; !- Name
	
  Coil:WaterHeating:AirToWaterHeatPump:VariableSpeed,
    HPWHOutdoorDXCoilVS,     !- Name
	10,						 !- Number of Speeds
	10,						 !- Nominal speed level
    4000.0,                  !- Rated Heating Capacity {W}
    29.44,                   !- Rated Evaporator Inlet Air Dry-Bulb Temperature {C}
    22.22,                   !- Rated Evaporator Inlet Air Wet-Bulb Temperature {C}
    55.72,                   !- Rated Condenser Inlet Water Temperature {C}
    0.2685,                  !- Rated Evaporator Air Flow Rate {m3/s}
    0.00016,                 !- Rated Condenser Water Flow Rate {m3/s}
    No,                      !- Evaporator Fan Power Included in Rated COP
    No,                      !- Condenser Pump Power Included in Rated COP
    No,                      !- Condenser Pump Heat Included in Rated Heating Capacity and Rated COP
    0.1,                     !- Fraction of Condenser Pump Heat to Water
    ,  						!- Evaporator Air Inlet Node Name
    ,  						!- Evaporator Air Outlet Node Name
    , 						!- Condenser Water Inlet Node Name
    ,						!- Condenser Water Outlet Node Name
    100.0,                   !- Crankcase Heater Capacity {W}
    5.0,                     !- Maximum Ambient Temperature for Crankcase Heater Operation {C}
    WetBulbTemperature,      !- Evaporator Air Temperature Type for Curve Objects
    HPWHPLFFPLR,             !- Part Load Fraction Correlation Curve Name
	400.00,					 !- Speed 1 Water Heating capacity {W} of Reference Unit
	5.0, 					 !- Speed 1 Water Heating COP {W/W} of Reference Unit
	0.80, 					 !- Speed 1 Sensible Heat Transfer Ratio of Reference Unit
	0.020140,                !- Speed 1 Air Flow Rate of Reference Unit
	0.000018,                !- Speed 1 water Air Flow Rate of Reference Unit
	10.0,                    !- Speed 1 Water Pump Power of Reference Unit
    HPWHHeatingCapFTemp,     !- Heating Capacity Function of Temperature Curve Name
    ConstantCubic,           !- Heating Capacity Function of Air Flow Fraction Curve Name
    ConstantCubic,           !- Heating Capacity Function of Water Flow Fraction Curve Name
    HPWHHeatingCOPFTemp,     !- Heating COP Function of Temperature Curve Name
    ConstantCubic,           !- Heating COP Function of Air Flow Fraction Curve Name
    ConstantCubic,           !- Heating COP Function of Water Flow Fraction Curve Name
	800.00,					 !- Speed 2 Water Heating capacity {W} of Reference Unit
	4.8, 					 !- Speed 2 Water Heating COP {W/W} of Reference Unit
	0.79, 					 !- Speed 2 Sensible Heat Transfer Ratio of Reference Unit
	0.040280,                !- Speed 2 Air Flow Rate of Reference Unit
	0.000036,                !- Speed 2 water Air Flow Rate of Reference Unit
	10.0,                    !- Speed 2 Water Pump Power of Reference Unit
    HPWHHeatingCapFTemp,     !- Heating Capacity Function of Temperature Curve Name
    ConstantCubic,           !- Heating Capacity Function of Air Flow Fraction Curve Name
    ConstantCubic,           !- Heating Capacity Function of Water Flow Fraction Curve Name
    HPWHHeatingCOPFTemp,     !- Heating COP Function of Temperature Curve Name
    ConstantCubic,           !- Heating COP Function of Air Flow Fraction Curve Name
    ConstantCubic,           !- Heating COP Function of Water Flow Fraction Curve Name
	1200.00,				 !- Speed 3 Water Heating capacity {W} of Reference Unit
	4.4, 					 !- Speed 3 Water Heating COP {W/W} of Reference Unit
	0.78, 					 !- Speed 3 Sensible Heat Transfer Ratio of Reference Unit
	0.060420,                !- Speed 3 Air Flow Rate of Reference Unit
	0.000054,                !- Speed 3 water Air Flow Rate of Reference Unit
	10.0,                    !- Speed 3 Water Pump Power of Reference Unit
    HPWHHeatingCapFTemp,     !- Heating Capacity Function of Temperature Curve Name
    ConstantCubic,           !- Heating Capacity Function of Air Flow Fraction Curve Name
    ConstantCubic,           !- Heating Capacity Function of Water Flow Fraction Curve Name
    HPWHHeatingCOPFTemp,     !- Heating COP Function of Temperature Curve Name
    ConstantCubic,           !- Heating COP Function of Air Flow Fraction Curve Name
    ConstantCubic,           !- Heating COP Function of Water Flow Fraction Curve Name
	1600.00,				 !- Speed 4 Water Heating capacity {W} of Reference Unit
	4.0, 					 !- Speed 4 Water Heating COP {W/W} of Reference Unit
	0.77, 					 !- Speed 4 Sensible Heat Transfer Ratio of Reference Unit
	0.080560,                !- Speed 4 Air Flow Rate of Reference Unit
	0.000072,                !- Speed 4 water Air Flow Rate of Reference Unit
	10.0,                    !- Speed 4 Water Pump Power of Reference Unit
    HPWHHeatingCapFTemp,     !- Heating Capacity Function of Temperature Curve Name
    ConstantCubic,           !- Heating Capacity Function of Air Flow Fraction Curve Name
    ConstantCubic,           !- Heating Capacity Function of Water Flow Fraction Curve Name
    HPWHHeatingCOPFTemp,     !- Heating COP Function of Temperature Curve Name
    ConstantCubic,           !- Heating COP Function of Air Flow Fraction Curve Name
    ConstantCubic,           !- Heating COP Function of Water Flow Fraction Curve Name
	2000.00,				 !- Speed 5 Water Heating capacity {W} of Reference Unit
	3.8, 					 !- Speed 5 Water Heating COP {W/W} of Reference Unit
	0.76, 					 !- Speed 5 Sensible Heat Transfer Ratio of Reference Unit
	0.100700,                !- Speed 5 Air Flow Rate of Reference Unit
	0.000090,                !- Speed 5 water Air Flow Rate of Reference Unit
	10.0,                    !- Speed 5 Water Pump Power of Reference Unit
    HPWHHeatingCapFTemp,     !- Heating Capacity Function of Temperature Curve Name
    ConstantCubic,           !- Heating Capacity Function of Air Flow Fraction Curve Name
    ConstantCubic,           !- Heating Capacity Function of Water Flow Fraction Curve Name
    HPWHHeatingCOPFTemp,     !- Heating COP Function of Temperature Curve Name
    ConstantCubic,           !- Heating COP Function of Air Flow Fraction Curve Name
    ConstantCubic,           !- Heating COP Function of Water Flow Fraction Curve Name
	2400.00,				 !- Speed 6 Water Heating capacity {W} of Reference Unit
	3.4, 					 !- Speed 6 Water Heating COP {W/W} of Reference Unit
	0.75, 					 !- Speed 6 Sensible Heat Transfer Ratio of Reference Unit
	0.120840,                !- Speed 6 Air Flow Rate of Reference Unit
	0.000108,                !- Speed 6 water Air Flow Rate of Reference Unit
	10.0,                    !- Speed 6 Water Pump Power of Reference Unit
    HPWHHeatingCapFTemp,     !- Heating Capacity Function of Temperature Curve Name
    ConstantCubic,           !- Heating Capacity Function of Air Flow Fraction Curve Name
    ConstantCubic,           !- Heating Capacity Function of Water Flow Fraction Curve Name
    HPWHHeatingCOPFTemp,     !- Heating COP Function of Temperature Curve Name
    ConstantCubic,           !- Heating COP Function of Air Flow Fraction Curve Name
    ConstantCubic,           !- Heating COP Function of Water Flow Fraction Curve Name
	2800.00,				 !- Speed 7 Water Heating capacity {W} of Reference Unit
	3.0, 					 !- Speed 7 Water Heating COP {W/W} of Reference Unit
	0.74, 					 !- Speed 7 Sensible Heat Transfer Ratio of Reference Unit
	0.140980,                !- Speed 7 Air Flow Rate of Reference Unit
	0.000126,                !- Speed 7 water Air Flow Rate of Reference Unit
	10.0,                    !- Speed 7 Water Pump Power of Reference Unit
    HPWHHeatingCapFTemp,     !- Heating Capacity Function of Temperature Curve Name
    ConstantCubic,           !- Heating Capacity Function of Air Flow Fraction Curve Name
    ConstantCubic,           !- Heating Capacity Function of Water Flow Fraction Curve Name
    HPWHHeatingCOPFTemp,     !- Heating COP Function of Temperature Curve Name
    ConstantCubic,           !- Heating COP Function of Air Flow Fraction Curve Name
    ConstantCubic,           !- Heating COP Function of Water Flow Fraction Curve Name
	3200.00,				 !- Speed 8 Water Heating capacity {W} of Reference Unit
	2.6, 					 !- Speed 8 Water Heating COP {W/W} of Reference Unit
	0.73, 					 !- Speed 8 Sensible Heat Transfer Ratio of Reference Unit
	0.161120,                !- Speed 8 Air Flow Rate of Reference Unit
	0.000144,                !- Speed 8 water Air Flow Rate of Reference Unit
	10.0,                    !- Speed 8 Water Pump Power of Reference Unit
    HPWHHeatingCapFTemp,     !- Heating Capacity Function of Temperature Curve Name
    ConstantCubic,           !- Heating Capacity Function of Air Flow Fraction Curve Name
    ConstantCubic,           !- Heating Capacity Function of Water Flow Fraction Curve Name
    HPWHHeatingCOPFTemp,     !- Heating COP Function of Temperature Curve Name
    ConstantCubic,           !- Heating COP Function of Air Flow Fraction Curve Name
    ConstantCubic,           !- Heating COP Function of Water Flow Fraction Curve Name
	3600.00,				 !- Speed 9 Water Heating capacity {W} of Reference Unit
	2.3, 					 !- Speed 9 Water Heating COP {W/W} of Reference Unit
	0.72, 					 !- Speed 9 Sensible Heat Transfer Ratio of Reference Unit
	0.181260,                !- Speed 9 Air Flow Rate of Reference Unit
	0.000162,                !- Speed 9 water Air Flow Rate of Reference Unit
	10.0,                    !- Speed 9 Water Pump Power of Reference Unit
    HPWHHeatingCapFTemp,     !- Heating Capacity Function of Temperature Curve Name
    ConstantCubic,           !- Heating Capacity Function of Air Flow Fraction Curve Name
    ConstantCubic,           !- Heating Capacity Function of Water Flow Fraction Curve Name
    HPWHHeatingCOPFTemp,     !- Heating COP Function of Temperature Curve Name
    ConstantCubic,           !- Heating COP Function of Air Flow Fraction Curve Name
    ConstantCubic,           !- Heating COP Function of Water Flow Fraction Curve Name
	4000.00,				 !- Speed 10 Water Heating capacity {W} of Reference Unit
	2.0, 					 !- Speed 10 Water Heating COP {W/W} of Reference Unit
	0.70, 					 !- Speed 10 Sensible Heat Transfer Ratio of Reference Unit
	0.201400,                !- Speed 10 Air Flow Rate of Reference Unit
	0.000179,                !- Speed 10 water Air Flow Rate of Reference Unit
	10.0,                    !- Speed 10 Water Pump Power of Reference Unit
    HPWHHeatingCapFTemp,     !- Heating Capacity Function of Temperature Curve Name
    ConstantCubic,           !- Heating Capacity Function of Air Flow Fraction Curve Name
    ConstantCubic,           !- Heating Capacity Function of Water Flow Fraction Curve Name
    HPWHHeatingCOPFTemp,     !- Heating COP Function of Temperature Curve Name
    ConstantCubic,           !- Heating COP Function of Air Flow Fraction Curve Name
    ConstantCubic;           !- Heating COP Function of Water Flow Fraction Curve Name
	
 Coil:WaterHeating:AirToWaterHeatPump:VariableSpeed,
    SCWHCoil1,               !- Name
	10,						 !- Number of Speeds
	10,						 !- Nominal speed level
    4000.0,                  !- Rated Heating Capacity {W} at the nominal speed level
    29.44,                   !- Rated Evaporator Inlet Air Dry-Bulb Temperature {C}
    22.22,                   !- Rated Evaporator Inlet Air Wet-Bulb Temperature {C}
    55.72,                   !- Rated Condenser Inlet Water Temperature {C}
    autocalculate,           !- Rated Evaporator Air Flow Rate {m3/s}
    autocalculate,           !- Rated Condenser Water Flow Rate {m3/s}
    No,                      !- Evaporator Fan Power Included in Rated COP
    No,                      !- Condenser Pump Power Included in Rated COP
    No,                      !- Condenser Pump Heat Included in Rated Heating Capacity and Rated COP
    0.1,                     !- Fraction of Condenser Pump Heat to Water
    ,   					 !- Evaporator Air Inlet Node Name
    , 						 !- Evaporator Air Outlet Node Name
    ,                        !- Condenser Water Inlet Node Name
    ,                        !- Condenser Water Outlet Node Name
    100.0,                   !- Crankcase Heater Capacity {W}
    5.0,                     !- Maximum Ambient Temperature for Crankcase Heater Operation {C}
    WetBulbTemperature,      !- Evaporator Air Temperature Type for Curve Objects
	HPWHPLFFPLR,             !- Part Load Fraction Correlation Curve Name
	400.00,					 !- Speed 1 Water Heating capacity {W} of Reference Unit
	5.0, 					 !- Speed 1 Water Heating COP {W/W} of Reference Unit
	0.80, 					 !- Speed 1 Sensible Heat Transfer Ratio of Reference Unit
	0.020140,                !- Speed 1 Air Flow Rate of Reference Unit
	0.000018,                !- Speed 1 water Air Flow Rate of Reference Unit
	10.0,                    !- Speed 1 Water Pump Power of Reference Unit
    HPWHHeatingCapFTemp,     !- Heating Capacity Function of Temperature Curve Name
    ConstantCubic,           !- Heating Capacity Function of Air Flow Fraction Curve Name
    ConstantCubic,           !- Heating Capacity Function of Water Flow Fraction Curve Name
    HPWHHeatingCOPFTemp,     !- Heating COP Function of Temperature Curve Name
    ConstantCubic,           !- Heating COP Function of Air Flow Fraction Curve Name
    ConstantCubic,           !- Heating COP Function of Water Flow Fraction Curve Name
	800.00,					 !- Speed 2 Water Heating capacity {W} of Reference Unit
	4.8, 					 !- Speed 2 Water Heating COP {W/W} of Reference Unit
	0.79, 					 !- Speed 2 Sensible Heat Transfer Ratio of Reference Unit
	0.040280,                !- Speed 2 Air Flow Rate of Reference Unit
	0.000036,                !- Speed 2 water Air Flow Rate of Reference Unit
	10.0,                    !- Speed 2 Water Pump Power of Reference Unit
    HPWHHeatingCapFTemp,     !- Heating Capacity Function of Temperature Curve Name
    ConstantCubic,           !- Heating Capacity Function of Air Flow Fraction Curve Name
    ConstantCubic,           !- Heating Capacity Function of Water Flow Fraction Curve Name
    HPWHHeatingCOPFTemp,     !- Heating COP Function of Temperature Curve Name
    ConstantCubic,           !- Heating COP Function of Air Flow Fraction Curve Name
    ConstantCubic,           !- Heating COP Function of Water Flow Fraction Curve Name
	1200.00,				 !- Speed 3 Water Heating capacity {W} of Reference Unit
	4.4, 					 !- Speed 3 Water Heating COP {W/W} of Reference Unit
	0.78, 					 !- Speed 3 Sensible Heat Transfer Ratio of Reference Unit
	0.060420,                !- Speed 3 Air Flow Rate of Reference Unit
	0.000054,                !- Speed 3 water Air Flow Rate of Reference Unit
	10.0,                    !- Speed 3 Water Pump Power of Reference Unit
    HPWHHeatingCapFTemp,     !- Heating Capacity Function of Temperature Curve Name
    ConstantCubic,           !- Heating Capacity Function of Air Flow Fraction Curve Name
    ConstantCubic,           !- Heating Capacity Function of Water Flow Fraction Curve Name
    HPWHHeatingCOPFTemp,     !- Heating COP Function of Temperature Curve Name
    ConstantCubic,           !- Heating COP Function of Air Flow Fraction Curve Name
    ConstantCubic,           !- Heating COP Function of Water Flow Fraction Curve Name
	1600.00,				 !- Speed 4 Water Heating capacity {W} of Reference Unit
	4.0, 					 !- Speed 4 Water Heating COP {W/W} of Reference Unit
	0.77, 					 !- Speed 4 Sensible Heat Transfer Ratio of Reference Unit
	0.080560,                !- Speed 4 Air Flow Rate of Reference Unit
	0.000072,                !- Speed 4 water Air Flow Rate of Reference Unit
	10.0,                    !- Speed 4 Water Pump Power of Reference Unit
    HPWHHeatingCapFTemp,     !- Heating Capacity Function of Temperature Curve Name
    ConstantCubic,           !- Heating Capacity Function of Air Flow Fraction Curve Name
    ConstantCubic,           !- Heating Capacity Function of Water Flow Fraction Curve Name
    HPWHHeatingCOPFTemp,     !- Heating COP Function of Temperature Curve Name
    ConstantCubic,           !- Heating COP Function of Air Flow Fraction Curve Name
    ConstantCubic,           !- Heating COP Function of Water Flow Fraction Curve Name
	2000.00,				 !- Speed 5 Water Heating capacity {W} of Reference Unit
	3.8, 					 !- Speed 5 Water Heating COP {W/W} of Reference Unit
	0.76, 					 !- Speed 5 Sensible Heat Transfer Ratio of Reference Unit
	0.100700,                !- Speed 5 Air Flow Rate of Reference Unit
	0.000090,                !- Speed 5 water Air Flow Rate of Reference Unit
	10.0,                    !- Speed 5 Water Pump Power of Reference Unit
    HPWHHeatingCapFTemp,     !- Heating Capacity Function of Temperature Curve Name
    ConstantCubic,           !- Heating Capacity Function of Air Flow Fraction Curve Name
    ConstantCubic,           !- Heating Capacity Function of Water Flow Fraction Curve Name
    HPWHHeatingCOPFTemp,     !- Heating COP Function of Temperature Curve Name
    ConstantCubic,           !- Heating COP Function of Air Flow Fraction Curve Name
    ConstantCubic,           !- Heating COP Function of Water Flow Fraction Curve Name
	2400.00,				 !- Speed 6 Water Heating capacity {W} of Reference Unit
	3.4, 					 !- Speed 6 Water Heating COP {W/W} of Reference Unit
	0.75, 					 !- Speed 6 Sensible Heat Transfer Ratio of Reference Unit
	0.120840,                !- Speed 6 Air Flow Rate of Reference Unit
	0.000108,                !- Speed 6 water Air Flow Rate of Reference Unit
	10.0,                    !- Speed 6 Water Pump Power of Reference Unit
    HPWHHeatingCapFTemp,     !- Heating Capacity Function of Temperature Curve Name
    ConstantCubic,           !- Heating Capacity Function of Air Flow Fraction Curve Name
    ConstantCubic,           !- Heating Capacity Function of Water Flow Fraction Curve Name
    HPWHHeatingCOPFTemp,     !- Heating COP Function of Temperature Curve Name
    ConstantCubic,           !- Heating COP Function of Air Flow Fraction Curve Name