!-Generator IDFEditor 1.34
!-Option OriginalOrderTop UseSpecialFormat
!-NOTE: All comments with '!-' are ignored by the IDFEditor and are generated automatically.
!-      Use '!' comments if they need to be retained when using the IDFEditor.
! HeatPumpVSAS.idf
! Basic file description:  Air Source Integrated Heat pump (w/ 10% outdoor air max.)
!                          1 story building divided into 3 interior conditioned zones. Roof with no plenum.
!                          No ground contact with floor.
!
! Highlights:              Example of Multi-functional air-source integrated heat pump
!
!
! Simulation Location/Run: Chicago Ohare Intl Ap IL USA WMO=725300, 2 design days, 2 run periods.
!                          Run Control executes two design days (see RUN PERIOD object)
!
! Location:                Chicago, IL
!
! Design Days:             Chicago Ohare Intl Ap IL USA Annual Heating 99%, MaxDB=-16.6°C
!                          Chicago Ohare Intl Ap IL USA Annual Cooling (DB=>MWB) 1%, MaxDB=31.6°C MWB=23°C
!
! Run Period (Weather File): Winter 1/14, Summer 7/7.
!
! Run Control:             No zone or system sizing, design day run control (no weather file simulation)
!
! Building: Single floor rectangular L-shaped building 40 ft south wall, 40 ft west wall, zone height 10 feet.
!           There is a single window in West Zone's south wall. The walls are 1 in stucco over 4 in common brick
!           and gypboard. The roof is a built up roof with 1/2 in stone over 3/8 in felt over 1 in dense insulation
!           supported by 2 in heavy weight concrete. The window is single pane 3mm clear.
!           The window to wall ratio is approximately 0.07.
!
!           The building is oriented due north.
!
! Floor Area:        130.1 m2 (1403 ft2)
! Number of Stories: 1
!
! Zone Description Details:
!
!       (0,12.192,0)                 (9.144,12.192,0)
!           ________________________________
!          |                                |
!          |                                |
!          |                                |
!          |                                |
!          |           North                |
!          |                                |
!          |                                |
!          |             (6.096,6.096,0)    |
!          |________________________________|____________ (12.192,6.069,0)
!          | (0,6.096,0)        |    (9.144,6.096,0)     |
!          |                    |                        |
!          |                    |                        |
!          |                    |                        |
!          |       West         |         East           |    window = *
!          |                    |                        |
!          |                    |                        |
!          |                    |                        |
!          |___**************___|________________________|
!
!      (0,0,0)             (6.069,0,0)               (12.192,0,0)
!
! Internal gains description:     ZONE West      - lighting is 0 watts, equip is 2928.751 watts, 3 occupants
! Internal gains description:     ZONE North     - lighting is 878.6252 watts, equip is 2928.751 watts, 4 occupants
! Internal gains description:     ZONE East      - lighting is 1464.375 watts, equip is 1464.375 watts, 3 occupants
!
! Interzone Surfaces:             3 interzone surfaces (see diagram)
! Internal Mass:                  None
! People:                         10
! Lights:                         2343 W
! Equipment:                      7323 W
! Windows:                        1
! Detached Shading:               None
! Daylight:                       None
! Natural Ventilation:            None
! Compact Schedules:              Yes
! Solair Distribution:            FullInteriorAndExterior
!
! HVAC:                           UNITARYSYSTEM:HEATPUMP:AIRTOAIR
!                                 Heat pump using a single air loop serving 3 zones.  Heat pump configured with a
!                                 blow through fan, heat pump defrost is timed using a resistive heating element.
!                                 Heating set point during winter months is 20 C during occupied hours,
!                                 15 C set-back otherwise.  Cooling set point at 24 C during occupied hours only.
!                                 Cooling coil off all winter. Heat Pump has a gas supplemental heater.
!
! Zonal Equipment:                DIRECT AIR
! Central Air Handling Equipment: Yes
! System Equipment Autosize:      No
! Purchased Cooling:              No
! Purchased Heating:              No
! Purchased Chilled Water:        No
! Purchased Hot Water:            No
! Coils:                          Coil:Cooling:DX:VariableSpeed, COIL:Heating:DX:VariableSpeed, Coil:Heating:Fuel
! Pumps:                          None
! Boilers:                        None
! Chillers:                       None
! Towers:                         None
!
! Results:
! Standard Reports:               None
! Timestep or Hourly Variables:   Timestep
! Time bins Report:               None
! HTML Report:                    None
! Environmental Emissions:        None
! Utility Tariffs:                None

  Version,24.1;

!*********** air source integrated heat pump ***********************

  CoilSystem:IntegratedHeatPump:AirSource,
    ASIHP1,                  !- Name
    HPOutdoorWaterOutletNode,!- Supply Hot Water Flow Sensor Node Name
    Heat Pump ACDXCoil 1,    !- Space Cooling Coil  Name
    Heat Pump DX Heating Coil 1,  !- Space Heating Coil Name
    HPWHOutdoorDXCoilVS,     !- Dedicated Water Heating Coil Name
    SCWHCoil1,               !- SCWH Coil Name
    SCDWHCoolCoil1,          !- SCDWH Cooling Coil Name
    SCDWHWHCoil1,            !- SCDWH Water Heating Coil Name
    SHDWHHeatCoil1,          !- SHDWH Heating Coil Name
    SHDWHWHCoil1,            !- SHDWH Water Heating Coil Name
    23.0,                    !- Indoor Temperature Limit for SCWH Mode {C}
    28.0,                    !- Ambient Temperature Limit for SCWH Mode {C}
    20.0,                    !- Indoor Temperature above Which WH has Higher Priority {C}
    16.0,                    !- Ambient Temperature above Which WH has Higher Priority {C}
    0,                       !- Flag to Indicate Load Control in SCWH Mode {dimensionless}
    1,                       !- Minimum Speed Level for SCWH Mode {dimensionless}
    3.0,                     !- Maximum Water Flow Volume before Switching from SCDWH to SCWH Mode {m3}
    1,                       !- Minimum Speed Level for SCDWH Mode {dimensionless}
    600,                     !- Maximum Running Time before Allowing Electric Resistance Heat Use during SHDWH Mode {s}
    1;                       !- Minimum Speed Level for SHDWH Mode {dimensionless}

!*********** Heat Pump Water Heater Inputs ***********************

  WaterHeater:HeatPump:PumpedCondenser,
    OutdoorHeatPumpWaterHeater,  !- Name
    PlantHPWHSch,            !- Availability Schedule Name
    HPWHTempSch,             !- Compressor Setpoint Temperature Schedule Name
    2.0,                     !- Dead Band Temperature Difference {deltaC}
    HPOutdoorWaterInletNode, !- Condenser Water Inlet Node Name
    HPOutdoorWaterOutletNode,!- Condenser Water Outlet Node Name
    0.00016,                 !- Condenser Water Flow Rate {m3/s}
    0.2685,                  !- Evaporator Air Flow Rate {m3/s}
    OutdoorAirOnly,          !- Inlet Air Configuration
    ,                        !- Air Inlet Node Name
    ,                        !- Air Outlet Node Name
    HPOutdoorAirInletNode,   !- Outdoor Air Node Name
    HPOutdoorAirOutletNode,  !- Exhaust Air Node Name
    ,                        !- Inlet Air Temperature Schedule Name
    ,                        !- Inlet Air Humidity Schedule Name
    ,                        !- Inlet Air Zone Name
    WaterHeater:Mixed,       !- Tank Object Type
    HPWHOutdoorTank,         !- Tank Name
    ,                        !- Tank Use Side Inlet Node Name
    ,                        !- Tank Use Side Outlet Node Name
    CoilSystem:IntegratedHeatPump:AirSource,  !- DX Coil Object Type
    ASIHP1,                  !- DX Coil Name
    -5.0,                    !- Minimum Inlet Air Temperature for Compressor Operation {C}
    ,                        !- Maximum Inlet Air Temperature for Compressor Operation {C}
    Outdoors,                !- Compressor Location
    ,                        !- Compressor Ambient Temperature Schedule Name
    Fan:OnOff,               !- Fan Object Type
    HPWHOutdoorFan,          !- Fan Name
    BlowThrough,             !- Fan Placement
    ,                        !- On Cycle Parasitic Electric Load {W}
    ,                        !- Off Cycle Parasitic Electric Load {W}
    ;                        !- Parasitic Heat Rejection Location

  WaterHeater:Mixed,
    HPWHOutdoorTank,         !- Name
    0.3785,                  !- Tank Volume {m3}
    Hot Water Setpoint Temp Schedule,  !- Setpoint Temperature Schedule Name
    2.0,                     !- Deadband Temperature Difference {deltaC}
    82.2222,                 !- Maximum Temperature Limit {C}
    CYCLE,                   !- Heater Control Type
    5000,                    !- Heater Maximum Capacity {W}
    0,                       !- Heater Minimum Capacity {W}
    ,                        !- Heater Ignition Minimum Flow Rate {m3/s}
    ,                        !- Heater Ignition Delay {s}
    ELECTRICITY,             !- Heater Fuel Type
    0.95,                    !- Heater Thermal Efficiency
    ,                        !- Part Load Factor Curve Name
    10,                      !- Off Cycle Parasitic Fuel Consumption Rate {W}
    ELECTRICITY,             !- Off Cycle Parasitic Fuel Type
    0,                       !- Off Cycle Parasitic Heat Fraction to Tank
    30,                      !- On Cycle Parasitic Fuel Consumption Rate {W}
    ELECTRICITY,             !- On Cycle Parasitic Fuel Type
    0,                       !- On Cycle Parasitic Heat Fraction to Tank
    Outdoors,                !- Ambient Temperature Indicator
    ,                        !- Ambient Temperature Schedule Name
    ,                        !- Ambient Temperature Zone Name
    HPWHOutdoorTank OA Node, !- Ambient Temperature Outdoor Air Node Name
    2.0,                     !- Off Cycle Loss Coefficient to Ambient Temperature {W/K}
    1.0,                     !- Off Cycle Loss Fraction to Zone
    2.0,                     !- On Cycle Loss Coefficient to Ambient Temperature {W/K}
    1.0,                     !- On Cycle Loss Fraction to Zone
    0.000379,                !- Peak Use Flow Rate {m3/s}
    Hot Water Demand Schedule,  !- Use Flow Rate Fraction Schedule Name
    ,                        !- Cold Water Supply Temperature Schedule Name
    ,                        !- Use Side Inlet Node Name
    ,                        !- Use Side Outlet Node Name
    ,                        !- Use Side Effectiveness
    HPOutdoorWaterOutletNode,!- Source Side Inlet Node Name
    HPOutdoorWaterInletNode, !- Source Side Outlet Node Name
    0.95;                    !- Source Side Effectiveness

  OutdoorAir:Node,
    HPWHOutdoorTank OA Node; !- Name

  OutdoorAir:Node,
    HPOUTDOORAIRINLETNODE;   !- Name

  OutdoorAir:Node,
    HPOutdoorAirOutletNode;  !- Name

  Coil:WaterHeating:AirToWaterHeatPump:VariableSpeed,
    HPWHOutdoorDXCoilVS,     !- Name
    10,                      !- Number of Speeds {dimensionless}
    10,                      !- Nominal Speed Level {dimensionless}
    4000.0,                  !- Rated Water Heating Capacity {W}
    29.44,                   !- Rated Evaporator Inlet Air Dry-Bulb Temperature {C}
    22.22,                   !- Rated Evaporator Inlet Air Wet-Bulb Temperature {C}
    55.72,                   !- Rated Condenser Inlet Water Temperature {C}
    0.2685,                  !- Rated Evaporator Air Flow Rate {m3/s}
    0.00016,                 !- Rated Condenser Water Flow Rate {m3/s}
    No,                      !- Evaporator Fan Power Included in Rated COP
    No,                      !- Condenser Pump Power Included in Rated COP
    No,                      !- Condenser Pump Heat Included in Rated Heating Capacity and Rated COP
    0.1,                     !- Fraction of Condenser Pump Heat to Water
    HPOutdoorFanAirOutletNode,  !- Evaporator Air Inlet Node Name
    HPOutdoorAirOutletNode,  !- Evaporator Air Outlet Node Name
    HPOutdoorWaterInletNode, !- Condenser Water Inlet Node Name
    HPOutdoorWaterOutletNode,!- Condenser Water Outlet Node Name
    100.0,                   !- Crankcase Heater Capacity {W}
    ,                        !- Crankcase Heater Capacity Function of Temperature Curve Name
    5.0,                     !- Maximum Ambient Temperature for Crankcase Heater Operation {C}
    WetBulbTemperature,      !- Evaporator Air Temperature Type for Curve Objects
    HPWHPLFFPLR,             !- Part Load Fraction Correlation Curve Name
    400.00,                  !- Rated Water Heating Capacity at Speed 1 {W}
    5.0,                     !- Rated Water Heating COP at Speed 1 {W/W}
    0.80,                    !- Rated Sensible Heat Ratio at Speed 1
    0.020140,                !- Speed 1 Reference Unit Rated Air Flow Rate {m3/s}
    0.000018,                !- Speed 1 Reference Unit Rated Water Flow Rate {m3/s}
    10.0,                    !- Speed 1 Reference Unit Water Pump Input Power At Rated Conditions {W}
    HPWHHeatingCapFTemp,     !- Speed 1 Total WH Capacity Function of Temperature Curve Name
    ConstantCubic,           !- Speed 1 Total WH Capacity Function of Air Flow Fraction Curve Name
    ConstantCubic,           !- Speed 1 Total WH Capacity Function of Water Flow Fraction Curve Name
    HPWHHeatingCOPFTemp,     !- Speed 1 COP Function of Temperature Curve Name
    ConstantCubic,           !- Speed 1 COP Function of Air Flow Fraction Curve Name
    ConstantCubic,           !- Speed 1 COP Function of Water Flow Fraction Curve Name
    800.00,                  !- Rated Water Heating Capacity at Speed 2 {W}
    4.8,                     !- Rated Water Heating COP at Speed 2 {W/W}
    0.79,                    !- Rated Sensible Heat Ratio at Speed 2
    0.040280,                !- Speed 2 Reference Unit Rated Air Flow Rate {m3/s}
    0.000036,                !- Speed 2 Reference Unit Rated Water Flow Rate {m3/s}
    10.0,                    !- Speed 2 Reference Unit Water Pump Input Power At Rated Conditions {dimensionless}
    HPWHHeatingCapFTemp,     !- Speed 2 Total WH Capacity Function of Temperature Curve Name
    ConstantCubic,           !- Speed 2 Total WH Capacity Function of Air Flow Fraction Curve Name
    ConstantCubic,           !- Speed 2 Total WH Capacity Function of Water Flow Fraction Curve Name
    HPWHHeatingCOPFTemp,     !- Speed 2 COP Function of Temperature Curve Name
    ConstantCubic,           !- Speed 2 COP Function of Air Flow Fraction Curve Name
    ConstantCubic,           !- Speed 2 COP Function of Water Flow Fraction Curve Name
    1200.00,                 !- Rated Water Heating Capacity at speed 3 {W}
    4.4,                     !- Rated Water Heating COP at Speed 3 {W/W}
    0.78,                    !- Rated Sensible Heat Ratio at Speed 3
    0.060420,                !- Speed 3 Reference Unit Rated Air Flow Rate {m3/s}
    0.000054,                !- Speed 3 Reference Unit Rated Water Flow Rate {m3/s}
    10.0,                    !- Speed 3 Reference Unit Water Pump Input Power At Rated Conditions {dimensionless}
    HPWHHeatingCapFTemp,     !- Speed 3 Total WH Capacity Function of Temperature Curve Name
    ConstantCubic,           !- Speed 3 Total WH Capacity Function of Air Flow Fraction Curve Name
    ConstantCubic,           !- Speed 3 Total WH Capacity Function of Water Flow Fraction Curve Name
    HPWHHeatingCOPFTemp,     !- Speed 3 COP Function of Temperature Curve Name
    ConstantCubic,           !- Speed 3 COP Function of Air Flow Fraction Curve Name
    ConstantCubic,           !- Speed 3 COP Function of Water Flow Fraction Curve Name
    1600.00,                 !- Rated Water Heating Capacity at Speed 4 {W}
    4.0,                     !- Rated Water Heating COP at Speed 4 {W/W}
    0.77,                    !- Rated Sensible Heat Ratio at Speed 4
    0.080560,                !- Speed 4 Reference Unit Rated Air Flow Rate {m3/s}
    0.000072,                !- Speed 4 Reference Unit Rated Water Flow Rate {m3/s}
    10.0,                    !- Speed 4 Reference Unit Water Pump Input Power At Rated Conditions {dimensionless}
    HPWHHeatingCapFTemp,     !- Speed 4 Total WH Capacity Function of Temperature Curve Name
    ConstantCubic,           !- Speed 4 Total WH Capacity Function of Air Flow Fraction Curve Name
    ConstantCubic,           !- Speed 4 Total WH Capacity Function of Water Flow Fraction Curve Name
    HPWHHeatingCOPFTemp,     !- Speed 4 COP Function of Temperature Curve Name
    ConstantCubic,           !- Speed 4 COP Function of Air Flow Fraction Curve Name
    ConstantCubic,           !- Speed 4 COP Function of Water Flow Fraction Curve Name
    2000.00,                 !- Rated Water Heating Capacity at Speed 5 {W}
    3.8,                     !- Rated Water Heating COP at Speed 5 {W/W}
    0.76,                    !- Rated Sensible Heat Ratio at Speed 5
    0.100700,                !- Speed 5 Reference Unit Rated Air Flow Rate {m3/s}
    0.000090,                !- Speed 5 Reference Unit Rated Water Flow Rate {m3/s}
    10.0,                    !- Speed 5 Reference Unit Water Pump Input Power At Rated Conditions {dimensionless}
    HPWHHeatingCapFTemp,     !- Speed 5 Total WH Capacity Function of Temperature Curve Name
    ConstantCubic,           !- Speed 5 Total WH Capacity Function of Air Flow Fraction Curve Name
    ConstantCubic,           !- Speed 5 Total WH Capacity Function of Water Flow Fraction Curve Name
    HPWHHeatingCOPFTemp,     !- Speed 5 COP Function of Temperature Curve Name
    ConstantCubic,           !- Speed 5 COP Function of Air Flow Fraction Curve Name
    ConstantCubic,           !- Speed 5 COP Function of Water Flow Fraction Curve Name
    2400.00,                 !- Rated Water Heating Capacity at Speed 6 {W}
    3.4,                     !- Rated Water Heating COP at Speed 6 {W/W}
    0.75,                    !- Rated Sensible Heat Ratio at Speed 6
    0.120840,                !- Speed 6 Reference Unit Rated Air Flow Rate {m3/s}
    0.000108,                !- Speed 6 Reference Unit Rated Water Flow Rate {m3/s}
    10.0,                    !- Speed 6 Reference Unit Water Pump Input Power At Rated Conditions {dimensionless}
    HPWHHeatingCapFTemp,     !- Speed 6 Total WH Capacity Function of Temperature Curve Name
    ConstantCubic,           !- Speed 6 Total WH Capacity Function of Air Flow Fraction Curve Name
    ConstantCubic,           !- Speed 6 Total WH Capacity Function of Water Flow Fraction Curve Name
    HPWHHeatingCOPFTemp,     !- Speed 6 COP Function of Temperature Curve Name
    ConstantCubic,           !- Speed 6 COP Function of Air Flow Fraction Curve Name
    ConstantCubic,           !- Speed 6 COP Function of Water Flow Fraction Curve Name
    2800.00,                 !- Rated Water Heating Capacity at Speed 7 {W}
    3.0,                     !- Rated Water Heating COP at Speed 7 {W/W}
    0.74,                    !- Rated Sensible Heat Ratio at Speed 7
    0.140980,                !- Speed 7 Reference Unit Rated Air Flow Rate {m3/s}
    0.000126,                !- Speed 7 Reference Unit Rated Water Flow Rate {m3/s}
    10.0,                    !- Speed 7 Reference Unit Water Pump Input Power At Rated Conditions {dimensionless}
    HPWHHeatingCapFTemp,     !- Speed 7 Total WH Capacity Function of Temperature Curve Name
    ConstantCubic,           !- Speed 7 Total WH Capacity Function of Air Flow Fraction Curve Name
    ConstantCubic,           !- Speed 7 Total WH Capacity Function of Water Flow Fraction Curve Name
    HPWHHeatingCOPFTemp,     !- Speed 7 COP Function of Temperature Curve Name
    ConstantCubic,           !- Speed 7 COP Function of Air Flow Fraction Curve Name
    ConstantCubic,           !- Speed 7 COP Function of Water Flow Fraction Curve Name
    3200.00,                 !- Rated Water Heating Capacity at Speed 8 {W}
    2.6,                     !- Rated Water Heating COP at Speed 8 {W/W}
    0.73,                    !- Rated Sensible Heat Ratio at Speed 8
    0.161120,                !- Speed 8 Reference Unit Rated Air Flow Rate {m3/s}
    0.000144,                !- Speed 8 Reference Unit Rated Water Flow Rate {m3/s}
    10.0,                    !- Speed 8 Reference Unit Water Pump Input Power At Rated Conditions {dimensionless}
    HPWHHeatingCapFTemp,     !- Speed 8 Total WH Capacity Function of Temperature Curve Name
    ConstantCubic,           !- Speed 8 Total WH Capacity Function of Air Flow Fraction Curve Name
    ConstantCubic,           !- Speed 8 Total WH Capacity Function of Water Flow Fraction Curve Name
    HPWHHeatingCOPFTemp,     !- Speed 8 COP Function of Temperature Curve Name
    ConstantCubic,           !- Speed 8 COP Function of Air Flow Fraction Curve Name
    ConstantCubic,           !- Speed 8 COP Function of Water Flow Fraction Curve Name
    3600.00,                 !- Rated Water Heating Capacity at Speed 9 {W}
    2.3,                     !- Rated Water Heating COP at Speed 9 {W/W}
    0.72,                    !- Rated Sensible Heat Ratio at Speed 9
    0.181260,                !- Speed 9 Reference Unit Rated Air Flow Rate {m3/s}
    0.000162,                !- Speed 9 Reference Unit Rated Water Flow Rate {m3/s}
    10.0,                    !- Speed 9 Reference Unit Water Pump Input Power At Rated Conditions {dimensionless}
    HPWHHeatingCapFTemp,     !- Speed 9 Total WH Capacity Function of Temperature Curve Name
    ConstantCubic,           !- Speed 9 Total WH Capacity Function of Air Flow Fraction Curve Name
    ConstantCubic,           !- Speed 9 Total WH Capacity Function of Water Flow Fraction Curve Name
    HPWHHeatingCOPFTemp,     !- Speed 9 COP Function of Temperature Curve Name
    ConstantCubic,           !- Speed 9 COP Function of Air Flow Fraction Curve Name
    ConstantCubic,           !- Speed 9 COP Function of Water Flow Fraction Curve Name
    4000.00,                 !- Rated Water Heating Capacity at Speed 10 {W}
    2.0,                     !- Rated Water Heating COP at Speed 10 {W/W}
    0.70,                    !- Rated Sensible Heat Ratio at Speed 10
    0.201400,                !- Speed 10 Reference Unit Rated Air Flow Rate {m3/s}
    0.000179,                !- Speed 10 Reference Unit Rated Water Flow Rate {m3/s}
    10.0,                    !- Speed 10 Reference Unit Water Pump Input Power At Rated Conditions {dimensionless}
    HPWHHeatingCapFTemp,     !- Speed 10 Total WH Capacity Function of Temperature Curve Name
    ConstantCubic,           !- Speed 10 Total WH Capacity Function of Air Flow Fraction Curve Name
    ConstantCubic,           !- Speed 10 Total WH Capacity Function of Water Flow Fraction Curve Name
    HPWHHeatingCOPFTemp,     !- Speed 10 COP Function of Temperature Curve Name
    ConstantCubic,           !- Speed 10 COP Function of Air Flow Fraction Curve Name
    ConstantCubic;           !- Speed 10 COP Function of Water Flow Fraction Curve Name

  Coil:WaterHeating:AirToWaterHeatPump:VariableSpeed,
    SCWHCoil1,               !- Name
    10,                      !- Number of Speeds {dimensionless}
    10,                      !- Nominal Speed Level {dimensionless}
    4000.0,                  !- Rated Water Heating Capacity {W}
    29.44,                   !- Rated Evaporator Inlet Air Dry-Bulb Temperature {C}
    22.22,                   !- Rated Evaporator Inlet Air Wet-Bulb Temperature {C}
    55.72,                   !- Rated Condenser Inlet Water Temperature {C}
    autocalculate,           !- Rated Evaporator Air Flow Rate {m3/s}
    autocalculate,           !- Rated Condenser Water Flow Rate {m3/s}
    No,                      !- Evaporator Fan Power Included in Rated COP
    No,                      !- Condenser Pump Power Included in Rated COP
    No,                      !- Condenser Pump Heat Included in Rated Heating Capacity and Rated COP
    0.1,                     !- Fraction of Condenser Pump Heat to Water
    DX Cooling Coil Air Inlet Node,  !- Evaporator Air Inlet Node Name
    Heating Coil Air Inlet Node,  !- Evaporator Air Outlet Node Name
    HPOutdoorWaterInletNode, !- Condenser Water Inlet Node Name
    HPOutdoorWaterOutletNode,!- Condenser Water Outlet Node Name
    100.0,                   !- Crankcase Heater Capacity {W}
    ,                        !- Crankcase Heater Capacity Function of Temperature Curve Name
    5.0,                     !- Maximum Ambient Temperature for Crankcase Heater Operation {C}
    WetBulbTemperature,      !- Evaporator Air Temperature Type for Curve Objects
    HPWHPLFFPLR,             !- Part Load Fraction Correlation Curve Name
    400.00,                  !- Rated Water Heating Capacity at Speed 1 {W}
    5.0,                     !- Rated Water Heating COP at Speed 1 {W/W}
    0.80,                    !- Rated Sensible Heat Ratio at Speed 1
    0.020140,                !- Speed 1 Reference Unit Rated Air Flow Rate {m3/s}
    0.000018,                !- Speed 1 Reference Unit Rated Water Flow Rate {m3/s}
    10.0,                    !- Speed 1 Reference Unit Water Pump Input Power At Rated Conditions {W}
    HPWHHeatingCapFTemp,     !- Speed 1 Total WH Capacity Function of Temperature Curve Name
    ConstantCubic,           !- Speed 1 Total WH Capacity Function of Air Flow Fraction Curve Name
    ConstantCubic,           !- Speed 1 Total WH Capacity Function of Water Flow Fraction Curve Name
    HPWHHeatingCOPFTemp,     !- Speed 1 COP Function of Temperature Curve Name
    ConstantCubic,           !- Speed 1 COP Function of Air Flow Fraction Curve Name
    ConstantCubic,           !- Speed 1 COP Function of Water Flow Fraction Curve Name
    800.00,                  !- Rated Water Heating Capacity at Speed 2 {W}
    4.8,                     !- Rated Water Heating COP at Speed 2 {W/W}
    0.79,                    !- Rated Sensible Heat Ratio at Speed 2
    0.040280,                !- Speed 2 Reference Unit Rated Air Flow Rate {m3/s}
    0.000036,                !- Speed 2 Reference Unit Rated Water Flow Rate {m3/s}
    10.0,                    !- Speed 2 Reference Unit Water Pump Input Power At Rated Conditions {dimensionless}
    HPWHHeatingCapFTemp,     !- Speed 2 Total WH Capacity Function of Temperature Curve Name
    ConstantCubic,           !- Speed 2 Total WH Capacity Function of Air Flow Fraction Curve Name
    ConstantCubic,           !- Speed 2 Total WH Capacity Function of Water Flow Fraction Curve Name
    HPWHHeatingCOPFTemp,     !- Speed 2 COP Function of Temperature Curve Name
    ConstantCubic,           !- Speed 2 COP Function of Air Flow Fraction Curve Name
    ConstantCubic,           !- Speed 2 COP Function of Water Flow Fraction Curve Name
    1200.00,                 !- Rated Water Heating Capacity at speed 3 {W}
    4.4,                     !- Rated Water Heating COP at Speed 3 {W/W}
    0.78,                    !- Rated Sensible Heat Ratio at Speed 3
    0.060420,                !- Speed 3 Reference Unit Rated Air Flow Rate {m3/s}
    0.000054,                !- Speed 3 Reference Unit Rated Water Flow Rate {m3/s}
    10.0,                    !- Speed 3 Reference Unit Water Pump Input Power At Rated Conditions {dimensionless}
    HPWHHeatingCapFTemp,     !- Speed 3 Total WH Capacity Function of Temperature Curve Name
    ConstantCubic,           !- Speed 3 Total WH Capacity Function of Air Flow Fraction Curve Name
    ConstantCubic,           !- Speed 3 Total WH Capacity Function of Water Flow Fraction Curve Name
    HPWHHeatingCOPFTemp,     !- Speed 3 COP Function of Temperature Curve Name
    ConstantCubic,           !- Speed 3 COP Function of Air Flow Fraction Curve Name
    ConstantCubic,           !- Speed 3 COP Function of Water Flow Fraction Curve Name
    1600.00,                 !- Rated Water Heating Capacity at Speed 4 {W}
    4.0,                     !- Rated Water Heating COP at Speed 4 {W/W}
    0.77,                    !- Rated Sensible Heat Ratio at Speed 4
    0.080560,                !- Speed 4 Reference Unit Rated Air Flow Rate {m3/s}
    0.000072,                !- Speed 4 Reference Unit Rated Water Flow Rate {m3/s}
    10.0,                    !- Speed 4 Reference Unit Water Pump Input Power At Rated Conditions {dimensionless}
    HPWHHeatingCapFTemp,     !- Speed 4 Total WH Capacity Function of Temperature Curve Name
    ConstantCubic,           !- Speed 4 Total WH Capacity Function of Air Flow Fraction Curve Name
    ConstantCubic,           !- Speed 4 Total WH Capacity Function of Water Flow Fraction Curve Name
    HPWHHeatingCOPFTemp,     !- Speed 4 COP Function of Temperature Curve Name
    ConstantCubic,           !- Speed 4 COP Function of Air Flow Fraction Curve Name
    ConstantCubic,           !- Speed 4 COP Function of Water Flow Fraction Curve Name
    2000.00,                 !- Rated Water Heating Capacity at Speed 5 {W}
    3.8,                     !- Rated Water Heating COP at Speed 5 {W/W}
    0.76,                    !- Rated Sensible Heat Ratio at Speed 5
    0.100700,                !- Speed 5 Reference Unit Rated Air Flow Rate {m3/s}
    0.000090,                !- Speed 5 Reference Unit Rated Water Flow Rate {m3/s}
    10.0,                    !- Speed 5 Reference Unit Water Pump Input Power At Rated Conditions {dimensionless}
    HPWHHeatingCapFTemp,     !- Speed 5 Total WH Capacity Function of Temperature Curve Name
    ConstantCubic,           !- Speed 5 Total WH Capacity Function of Air Flow Fraction Curve Name