
  VERSION,8.6;

!-   ===========  ALL OBJECTS IN CLASS: BUILDING ===========

  Building,
    Exercise 1A,             !- Name
    0.0,                     !- North Axis {deg}
    Country,                 !- Terrain
    0.04,                    !- Loads Convergence Tolerance Value
    0.4,                     !- Temperature Convergence Tolerance Value {deltaC}
    FullInteriorAndExterior, !- Solar Distribution
    ,                        !- Maximum Number of Warmup Days
    6;                       !- Minimum Number of Warmup Days

!-   ===========  ALL OBJECTS IN CLASS: TIMESTEP IN HOUR ===========

  Timestep,4;

!-   ===========  ALL OBJECTS IN CLASS: INSIDE CONVECTION ALGORITHM ===========

  SurfaceConvectionAlgorithm:Inside,TARP;

!-   ===========  ALL OBJECTS IN CLASS: OUTSIDE CONVECTION ALGORITHM ===========

  SurfaceConvectionAlgorithm:Outside,TARP;

!-   ===========  ALL OBJECTS IN CLASS: SOLUTION ALGORITHM ===========

  HeatBalanceAlgorithm,ConductionTransferFunction;

!-   ===========  ALL OBJECTS IN CLASS: SHADOWING CALCULATIONS ===========

  ShadowCalculation,
    AverageOverDaysInFrequency,  !- Calculation Method
    20;                      !- Calculation Frequency

!-   ===========  ALL OBJECTS IN CLASS: RUN CONTROL ===========

  SimulationControl,
    No,                      !- Do Zone Sizing Calculation
    No,                      !- Do System Sizing Calculation
    No,                      !- Do Plant Sizing Calculation
    No,                     !- Run Simulation for Sizing Periods
    Yes;                      !- Run Simulation for Weather File Run Periods

!-   ===========  ALL OBJECTS IN CLASS: LOCATION ===========

  Site:Location,
    Pheonix,  !- Name
    33.43,-112.02,-7.0,339.0;

!-   ===========  ALL OBJECTS IN CLASS: DESIGNDAY ===========
! CHICAGO_IL_USA Cooling (DB=>MWB) .4%, MaxDB=  32.80 MWB=  23.60

  SizingPeriod:DesignDay,
    CHICAGO_IL_USA Cooling .4% Conditions DB=>MWB,  !- Name
    7,                       !- Month
    21,                      !- Day of Month
    SummerDesignDay,         !- Day Type
    32.80000,                !- Maximum Dry-Bulb Temperature {C}
    10.90000,                !- Daily Dry-Bulb Temperature Range {deltaC}
    ,                        !- Dry-Bulb Temperature Range Modifier Type
    ,                        !- Dry-Bulb Temperature Range Modifier Day Schedule Name
    Wetbulb,                 !- Humidity Condition Type
    23.60000,                !- Wetbulb or DewPoint at Maximum Dry-Bulb {C}
    ,                        !- Humidity Condition Day Schedule Name
    ,                        !- Humidity Ratio at Maximum Dry-Bulb {kgWater/kgDryAir}
    ,                        !- Enthalpy at Maximum Dry-Bulb {J/kg}
    ,                        !- Daily Wet-Bulb Temperature Range {deltaC}
    99063.21,                !- Barometric Pressure {Pa}
    0.0,                     !- Wind Speed {m/s}
    0.0,                     !- Wind Direction {deg}
    No,                      !- Rain Indicator
    No,                      !- Snow Indicator
    No,                      !- Daylight Saving Time Indicator
    ASHRAEClearSky,          !- Solar Model Indicator
    ,                        !- Beam Solar Day Schedule Name
    ,                        !- Diffuse Solar Day Schedule Name
    ,                        !- ASHRAE Clear Sky Optical Depth for Beam Irradiance (taub) {dimensionless}
    ,                        !- ASHRAE Clear Sky Optical Depth for Diffuse Irradiance (taud) {dimensionless}
    1.000000;                !- Sky Clearness

! CHICAGO_IL_USA Heating 99.6%, MaxDB= -21.20 Wind Speed=   4.60 Wind Dir= 270.00

  SizingPeriod:DesignDay,
    CHICAGO_IL_USA Heating 99.6% Conditions,  !- Name
    1,                       !- Month
    21,                      !- Day of Month
    WinterDesignDay,         !- Day Type
    -21.20000,               !- Maximum Dry-Bulb Temperature {C}
    0.0,                     !- Daily Dry-Bulb Temperature Range {deltaC}
    ,                        !- Dry-Bulb Temperature Range Modifier Type
    ,                        !- Dry-Bulb Temperature Range Modifier Day Schedule Name
    Wetbulb,                 !- Humidity Condition Type
    -21.20000,               !- Wetbulb or DewPoint at Maximum Dry-Bulb {C}
    ,                        !- Humidity Condition Day Schedule Name
    ,                        !- Humidity Ratio at Maximum Dry-Bulb {kgWater/kgDryAir}
    ,                        !- Enthalpy at Maximum Dry-Bulb {J/kg}
    ,                        !- Daily Wet-Bulb Temperature Range {deltaC}
    99063.21,                !- Barometric Pressure {Pa}
    4.600000,                !- Wind Speed {m/s}
    270.0000,                !- Wind Direction {deg}
    No,                      !- Rain Indicator
    No,                      !- Snow Indicator
    No,                      !- Daylight Saving Time Indicator
    ASHRAEClearSky,          !- Solar Model Indicator
    ,                        !- Beam Solar Day Schedule Name
    ,                        !- Diffuse Solar Day Schedule Name
    ,                        !- ASHRAE Clear Sky Optical Depth for Beam Irradiance (taub) {dimensionless}
    ,                        !- ASHRAE Clear Sky Optical Depth for Diffuse Irradiance (taud) {dimensionless}
    0.0;                     !- Sky Clearness

  RunPeriod,
    ,                        !- Name
    1,                       !- Begin Month
    1,                       !- Begin Day of Month
    12,                      !- End Month
    31,                      !- End Day of Month
    Tuesday,                 !- Day of Week for Start Day
    Yes,                     !- Use Weather File Holidays and Special Days
    Yes,                     !- Use Weather File Daylight Saving Period
    No,                      !- Apply Weekend Holiday Rule
    Yes,                     !- Use Weather File Rain Indicators
    Yes;                     !- Use Weather File Snow Indicators

!-   ===========  ALL OBJECTS IN CLASS: GROUNDTEMPERATURES ===========

  Site:GroundTemperature:BuildingSurface,18.3,18.2,18.3,18.4,20.1,22.0,22.3,22.5,22.5,20.7,18.9,18.5;

!-   ===========  ALL OBJECTS IN CLASS: MATERIAL:REGULAR ===========

  Material,
    Gypsum Board,        !- Name
    MediumSmooth,        !- Roughness
    0.0127,              !- Thickness {m}
    0.160265598,         !- Conductivity {W/m-K}
    800.92,              !- Density {kg/m3}
    1088.568,            !- Specific Heat {J/kg-K}
    0.9,                 !- Thermal Absorptance
    0.9,                 !- Solar Absorptance
    0.9;                 !- Visible Absorptance

  Material,
    R-19 Insulation,     !- Name
    Rough,               !- Roughness
    0.15875,             !- Thickness {m}
    0.0474393093,        !- Conductivity {W/m-K}
    9.61104,             !- Density {kg/m3}
    795.492,             !- Specific Heat {J/kg-K}
    0.9,                 !- Thermal Absorptance
    0.9,                 !- Solar Absorptance
    0.9;                 !- Visible Absorptance

  Material,
    Joists,              !- Name
    Rough,               !- Roughness
    0.00740918,          !- Thickness {m}
    0.1182607809,        !- Conductivity {W/m-K}
    448.5152,            !- Density {kg/m3}
    1632.852,            !- Specific Heat {J/kg-K}
    0.9,                 !- Thermal Absorptance
    0.9,                 !- Solar Absorptance
    0.9;                 !- Visible Absorptance

  Material,
    Shingles,            !- Name
    Rough,               !- Roughness
    0.00635,             !- Thickness {m}
    0.0819327582,        !- Conductivity {W/m-K}
    1121.288,            !- Density {kg/m3}
    1256.04,             !- Specific Heat {J/kg-K}
    0.9,                 !- Thermal Absorptance
    0.9,                 !- Solar Absorptance
    0.05;                !- Visible Absorptance

  Material,
    Felt,                !- Name
    Rough,               !- Roughness
    0.02159,             !- Thickness {m}
    0.0819327582,        !- Conductivity {W/m-K}
    1121.288,            !- Density {kg/m3}
    1507.248,            !- Specific Heat {J/kg-K}
    0.9,                 !- Thermal Absorptance
    0.9,                 !- Solar Absorptance
    0.05;                !- Visible Absorptance

  Material,
    Plywood,             !- Name
    Rough,               !- Roughness
    0.0127,              !- Thickness {m}
    0.288512691,         !- Conductivity {W/m-K}
    544.6256,            !- Density {kg/m3}
    1214.172,            !- Specific Heat {J/kg-K}
    0.9,                 !- Thermal Absorptance
    0.9,                 !- Solar Absorptance
    0.05;                !- Visible Absorptance

  Material,
    Rafters,             !- Name
    Rough,               !- Roughness
    0.00555625,          !- Thickness {m}
    0.1182607809,        !- Conductivity {W/m-K}
    448.5152,            !- Density {kg/m3}
    1632.852,            !- Specific Heat {J/kg-K}
    0.9,                 !- Thermal Absorptance
    0.9,                 !- Solar Absorptance
    0.05;                !- Visible Absorptance

  Material,
    Hardboard Siding-Gable,!- Name
    MediumSmooth,        !- Roughness
    0.0111125,           !- Thickness {m}
    0.214956666,         !- Conductivity {W/m-K}
    640.736,             !- Density {kg/m3}
    1172.304,            !- Specific Heat {J/kg-K}
    0.9,                 !- Thermal Absorptance
    0.7,                 !- Solar Absorptance
    0.05;                !- Visible Absorptance

  Material,
    Studs,               !- Name
    Rough,               !- Roughness
    0.00555625,          !- Thickness {m}
    0.1182607809,        !- Conductivity {W/m-K}
    448.5152,            !- Density {kg/m3}
    1632.852,            !- Specific Heat {J/kg-K}
    0.9,                 !- Thermal Absorptance
    0.7,                 !- Solar Absorptance
    0.05;                !- Visible Absorptance

  Material,
    Hardboard Siding-Eave,!- Name
    MediumSmooth,        !- Roughness
    0.0111125,           !- Thickness {m}
    0.214956666,         !- Conductivity {W/m-K}
    640.736,             !- Density {kg/m3}
    1172.304,            !- Specific Heat {J/kg-K}
    0.9,                 !- Thermal Absorptance
    0.7,                 !- Solar Absorptance
    0.9;                 !- Visible Absorptance

  Material,
    HF-C5,                   !- Name
    MediumRough,             !- Roughness
    0.1015000,               !- Thickness {m}
    1.729600,                !- Conductivity {W/m-K}
    2243.000,                !- Density {kg/m3}
    837.0000,                !- Specific Heat {J/kg-K}
    0.9000000,               !- Thermal Absorptance
    0.6500000,               !- Solar Absorptance
    0.6500000;               !- Visible Absorptance

!-   ===========  ALL OBJECTS IN CLASS: CONSTRUCTION ===========

  Construction,
    CeilingConstruction,     !- Name
    Joists,                  !- Outside Layer
    R-19 Insulation,         !- Layer 2
    Gypsum Board;            !- Layer 3

  Construction,
    Reverse:CeilingConstruction,     !- Name
    Gypsum Board,            !- Outside Layer
    R-19 Insulation,         !- Layer 2
    Joists;                  !- Layer 3

  Construction,
    Roof,                  !- Name
    Shingles,              !- Outside Layer
    Felt,                  !- Layer 2
    Plywood,               !- Layer 3
    Rafters;               !- Layer 3

  Construction,
    Gables,                 !- Name
    Hardboard Siding-Gable, !- Outside Layer
    Studs;                  !- Layer 2

  Construction,
    Eave Walls,             !- Name
    Hardboard Siding-Eave;  !- Outside Layer

  Construction,
    Walls,                  !- Name
    Hardboard Siding-Eave,  !- Outside Layer
    R-19 Insulation,        !- Layer 2
    Gypsum Board;           !- Layer 3

  Construction,
    LTFLOOR,                 !- Name
    HF-C5;                   !- Outside Layer

!-   ===========  ALL OBJECTS IN CLASS: ZONE ===========

  Zone,
    OCCUPIED ZONE,                !- Name
    0,                       !- Direction of Relative North {deg}
    0,                       !- X Origin {m}
    0,                       !- Y Origin {m}
    0,                       !- Z Origin {m}
    1,                       !- Type
    1,                       !- Multiplier
    autocalculate,                  !- Ceiling Height {m}
    autocalculate;                   !- Volume {m3}

  Zone,
    ATTIC ZONE,                !- Name
    0,                       !- Direction of Relative North {deg}
    0,                       !- X Origin {m}
    0,                       !- Y Origin {m}
    0,                       !- Z Origin {m}
    1,                       !- Type
    1,                       !- Multiplier
    autocalculate,                  !- Ceiling Height {m}
    autocalculate;                   !- Volume {m3}

!-   ===========  ALL OBJECTS IN CLASS: SURFACEGEOMETRY ===========

  GlobalGeometryRules,
    UpperLeftCorner,         !- Starting Vertex Position
    Counterclockwise,        !- Vertex Entry Direction
    World;                   !- Coordinate System

!-   ===========  ALL OBJECTS IN CLASS: SURFACE:HEATTRANSFER ===========

  BuildingSurface:Detailed,
    North Wall,           !- Name
    Wall,                    !- Surface Type
    Walls,                  !- Construction Name
    OCCUPIED ZONE,                !- Zone Name
    Outdoors,                !- Outside Boundary Condition
    ,                        !- Outside Boundary Condition Object
    SunExposed,              !- Sun Exposure
    WindExposed,             !- Wind Exposure
    0.50,                    !- View Factor to Ground
    4,                       !- Number of Vertices
    16.764,8.5344,2.70,  !- X,Y,Z ==> Vertex 1 {m}
    16.764,8.5344,0,  !- X,Y,Z ==> Vertex 2 {m}
    0,8.5344,0,  !- X,Y,Z ==> Vertex 3 {m}
    0,8.5344,2.70;  !- X,Y,Z ==> Vertex 4 {m}

  BuildingSurface:Detailed,
    North Wall Attic,           !- Name
    Wall,                    !- Surface Type
    Eave Walls,                  !- Construction Name
    ATTIC ZONE,                !- Zone Name
    Outdoors,                !- Outside Boundary Condition
    ,                        !- Outside Boundary Condition Object
    SunExposed,              !- Sun Exposure
    WindExposed,             !- Wind Exposure
    0.50,                    !- View Factor to Ground
    4,                       !- Number of Vertices
    16.764,8.5344,2.7254,  !- X,Y,Z ==> Vertex 1 {m}
    16.764,8.5344,2.70,  !- X,Y,Z ==> Vertex 2 {m}
    0,8.5344,2.70,  !- X,Y,Z ==> Vertex 3 {m}
    0,8.5344,2.7254;  !- X,Y,Z ==> Vertex 4 {m}

  BuildingSurface:Detailed,
    East Wall,               !- Name
    Wall,                    !- Surface Type
    Walls,                  !- Construction Name
    OCCUPIED ZONE,                !- Zone Name
    Outdoors,                !- Outside Boundary Condition
    ,                        !- Outside Boundary Condition Object
    SunExposed,              !- Sun Exposure
    WindExposed,             !- Wind Exposure
    0.50,                    !- View Factor to Ground
    4,                       !- Number of Vertices
    16.764,0,2.70,  !- X,Y,Z ==> Vertex 1 {m}
    16.764,0,0,  !- X,Y,Z ==> Vertex 2 {m}
    16.764,8.5344,0,  !- X,Y,Z ==> Vertex 3 {m}
    16.764,8.5344,2.70;  !- X,Y,Z ==> Vertex 4 {m}

  BuildingSurface:Detailed,
    East Wall Attic,               !- Name
    Wall,                    !- Surface Type
    Eave Walls,                  !- Construction Name
    ATTIC ZONE,                !- Zone Name
    Outdoors,                !- Outside Boundary Condition
    ,                        !- Outside Boundary Condition Object
    SunExposed,              !- Sun Exposure
    WindExposed,             !- Wind Exposure
    0.50,                    !- View Factor to Ground
    5,                       !- Number of Vertices
    16.764,0,2.7254,  !- X,Y,Z ==> Vertex 1 {m}
    16.764,0,2.70,  !- X,Y,Z ==> Vertex 2 {m}
    16.764,8.5344,2.70,  !- X,Y,Z ==> Vertex 3 {m}
    16.764,8.5344,2.7254,  !- X,Y,Z ==> Vertex 4 {m}
    16.764,4.2672,4.5034;

  BuildingSurface:Detailed,
    South Wall,              !- Name
    Wall,                    !- Surface Type
    Walls,                  !- Construction Name
    OCCUPIED ZONE,           !- Zone Name
    Outdoors,                !- Outside Boundary Condition
    ,                        !- Outside Boundary Condition Object
    SunExposed,              !- Sun Exposure
    WindExposed,             !- Wind Exposure
    0.50,                    !- View Factor to Ground
    4,                       !- Number of Vertices
    0,0,2.70,  !- X,Y,Z ==> Vertex 1 {m}
    0,0,0,  !- X,Y,Z ==> Vertex 2 {m}
    16.764,0,0,  !- X,Y,Z ==> Vertex 3 {m}
    16.764,0,2.70;  !- X,Y,Z ==> Vertex 4 {m}

  BuildingSurface:Detailed,
    South Wall Attic,              !- Name
    Wall,                    !- Surface Type
    Eave Walls,                  !- Construction Name
    ATTIC ZONE,           !- Zone Name
    Outdoors,                !- Outside Boundary Condition
    ,                        !- Outside Boundary Condition Object
    SunExposed,              !- Sun Exposure
    WindExposed,             !- Wind Exposure
    0.50,                    !- View Factor to Ground
    4,                       !- Number of Vertices
    0,0,2.7254,  !- X,Y,Z ==> Vertex 1 {m}
    0,0,2.70,  !- X,Y,Z ==> Vertex 2 {m}
    16.764,0,2.70,  !- X,Y,Z ==> Vertex 3 {m}
    16.764,0,2.7254;  !- X,Y,Z ==> Vertex 4 {m}

  BuildingSurface:Detailed,
    West Wall,               !- Name
    Wall,                    !- Surface Type
    Walls,                  !- Construction Name
    OCCUPIED ZONE,           !- Zone Name
    Outdoors,                !- Outside Boundary Condition
    ,                        !- Outside Boundary Condition Object
    SunExposed,              !- Sun Exposure
    WindExposed,             !- Wind Exposure
    0.50,                    !- View Factor to Ground
    4,                       !- Number of Vertices
    0,8.5344,2.70,           !- X,Y,Z ==> Vertex 1 {m}
    0,8.5344,0,              !- X,Y,Z ==> Vertex 2 {m}
    0,0,0,                   !- X,Y,Z ==> Vertex 3 {m}
    0,0,2.70;                !- X,Y,Z ==> Vertex 4 {m}

  BuildingSurface:Detailed,
    West Wall Attic,               !- Name
    Wall,                    !- Surface Type
    Eave Walls,                  !- Construction Name
    ATTIC ZONE,           !- Zone Name
    Outdoors,                !- Outside Boundary Condition
    ,                        !- Outside Boundary Condition Object
    SunExposed,              !- Sun Exposure
    WindExposed,             !- Wind Exposure
    0.50,                    !- View Factor to Ground
    5,                       !- Number of Vertices
    0,8.5344,2.7254,           !- X,Y,Z ==> Vertex 1 {m}
    0,8.5344,2.70,              !- X,Y,Z ==> Vertex 2 {m}
    0,0,2.70,                   !- X,Y,Z ==> Vertex 3 {m}
    0,0,2.7254,                !- X,Y,Z ==> Vertex 4 {m}
    0,4.2672,4.5034;

  BuildingSurface:Detailed,
    Zone Floor,              !- Name
    Floor,                   !- Surface Type
    LTFLOOR,                 !- Construction Name
    OCCUPIED ZONE,           !- Zone Name
    Ground,                  !- Outside Boundary Condition
    ,                        !- Outside Boundary Condition Object
    NoSun,                   !- Sun Exposure
    NoWind,                  !- Wind Exposure
    0,                       !- View Factor to Ground
    4,                       !- Number of Vertices
    0,0,0,  !- X,Y,Z ==> Vertex 1 {m}
    0,8.5344,0,  !- X,Y,Z ==> Vertex 2 {m}
    16.764,8.5344,0,  !- X,Y,Z ==> Vertex 3 {m}
    16.764,0,0;  !- X,Y,Z ==> Vertex 4 {m}

  BuildingSurface:Detailed,
    Zone Ceiling,       !- Name
    Ceiling,                    !- Surface Type
    CeilingConstruction,                  !- Construction Name
    OCCUPIED ZONE,           !- Zone Name
    Surface,                !- Outside Boundary Condition
    Attic Floor,                        !- Outside Boundary Condition Object
    NoSun,              !- Sun Exposure
    NoWind,             !- Wind Exposure
    0,                       !- View Factor to Ground
    4,                       !- Number of Vertices
    0,8.5344,2.70,  !- X,Y,Z ==> Vertex 1 {m}
    0,0,2.70,  !- X,Y,Z ==> Vertex 2 {m}
    16.764,0,2.70,  !- X,Y,Z ==> Vertex 3 {m}
    16.764,8.5344,2.70;  !- X,Y,Z ==> Vertex 4 {m}

  BuildingSurface:Detailed,
    Attic Floor,       !- Name
    Floor,                    !- Surface Type
    Reverse:CeilingConstruction,                  !- Construction Name
    ATTIC ZONE,           !- Zone Name
    Surface,                !- Outside Boundary Condition
    Zone Ceiling,                        !- Outside Boundary Condition Object
    NoSun,              !- Sun Exposure
    NoWind,             !- Wind Exposure
    0,                       !- View Factor to Ground
    4,                       !- Number of Vertices
    16.764,8.5344,2.70,  !- X,Y,Z ==> Vertex 4 {m}
    16.764,0,2.70,  !- X,Y,Z ==> Vertex 3 {m}
    0,0,2.70,  !- X,Y,Z ==> Vertex 2 {m}
    0,8.5344,2.70;  !- X,Y,Z ==> Vertex 1 {m}

  BuildingSurface:Detailed,
    Attic Roof South,       !- Name
    Roof,                    !- Surface Type
    Roof,                  !- Construction Name
    ATTIC ZONE,           !- Zone Name
    Outdoors,                !- Outside Boundary Condition
    ,                        !- Outside Boundary Condition Object
    SunExposed,              !- Sun Exposure
    WindExposed,             !- Wind Exposure
    0,                       !- View Factor to Ground
    4,                       !- Number of Vertices
    0,4.2672,4.5034,  !- X,Y,Z ==> Vertex 1 {m}
    0,0,2.7254,  !- X,Y,Z ==> Vertex 2 {m}
    16.764,0,2.7254,  !- X,Y,Z ==> Vertex 3 {m}
    16.764,4.2672,4.5034;  !- X,Y,Z ==> Vertex 4 {m}

  BuildingSurface:Detailed,
    Attic Roof North,       !- Name
    Roof,                    !- Surface Type
    Roof,                  !- Construction Name
    ATTIC ZONE,           !- Zone Name
    Outdoors,                !- Outside Boundary Condition
    ,                        !- Outside Boundary Condition Object
    SunExposed,              !- Sun Exposure
    WindExposed,             !- Wind Exposure
    0,                       !- View Factor to Ground
    4,                       !- Number of Vertices
    16.764,4.2672,4.5034,  !- X,Y,Z ==> Vertex 4 {m}
    16.764,8.5344,2.7254,  !- X,Y,Z ==> Vertex 4 {m}
    0,8.5344,2.7254,  !- X,Y,Z ==> Vertex 2 {m}
    0,4.2672,4.5034;  !- X,Y,Z ==> Vertex 3 {m}

!-   ===========  AIRFLOWNETWORK Objects ===========

  Curve:Quadratic,
    WindACPLFFPLR,           !- Name
    0.85,                    !- Coefficient1 Constant
    0.15,                    !- Coefficient2 x
    0.0,                     !- Coefficient3 x**2
    0.0,                     !- Minimum Value of x
    1.0;                     !- Maximum Value of x

  Curve:Biquadratic,
    WindACEIRFT,             !- Name
    0.342414409,             !- Coefficient1 Constant
    0.034885008,             !- Coefficient2 x
    -0.000623700,            !- Coefficient3 x**2
    0.004977216,             !- Coefficient4 y
    0.000437951,             !- Coefficient5 y**2
    -0.000728028,            !- Coefficient6 x*y
    12.77778,                !- Minimum Value of x
    23.88889,                !- Maximum Value of x
    18.0,                    !- Minimum Value of y
    46.11111,                !- Maximum Value of y
    ,                        !- Minimum Curve Output
    ,                        !- Maximum Curve Output
    Temperature,             !- Input Unit Type for X
    Temperature,             !- Input Unit Type for Y
    Dimensionless;           !- Output Unit Type

  Curve:Biquadratic,
    WindACCoolCapFT,         !- Name
    0.942587793,             !- Coefficient1 Constant
    0.009543347,             !- Coefficient2 x
    0.000683770,             !- Coefficient3 x**2
    -0.011042676,            !- Coefficient4 y
    0.000005249,             !- Coefficient5 y**2
    -0.000009720,            !- Coefficient6 x*y
    12.77778,                !- Minimum Value of x
    23.88889,                !- Maximum Value of x
    18.0,                    !- Minimum Value of y
    46.11111,                !- Maximum Value of y
    ,                        !- Minimum Curve Output
    ,                        !- Maximum Curve Output
    Temperature,             !- Input Unit Type for X
    Temperature,             !- Input Unit Type for Y
    Dimensionless;           !- Output Unit Type

  Curve:Quadratic,
    WindACCoolCapFFF,        !- Name
    0.8,                     !- Coefficient1 Constant
    0.2,                     !- Coefficient2 x
    0.0,                     !- Coefficient3 x**2
    0.5,                     !- Minimum Value of x
    1.5;                     !- Maximum Value of x

  Curve:Quadratic,
    WindACEIRFFF,            !- Name
    1.1552,                  !- Coefficient1 Constant
    -0.1808,                 !- Coefficient2 x
    0.0256,                  !- Coefficient3 x**2
    0.5,                     !- Minimum Value of x
    1.5;                     !- Maximum Value of x

  ScheduleTypeLimits,
    Temperature,             !- Name
    -60,                     !- Lower Limit Value
    200,                     !- Upper Limit Value
    CONTINUOUS,              !- Numeric Type
    Temperature;             !- Unit Type

  ScheduleTypeLimits,
    Control Type,            !- Name
    0,                       !- Lower Limit Value
    4,                       !- Upper Limit Value
    DISCRETE;                !- Numeric Type

  ScheduleTypeLimits,
    Fraction,                !- Name
    0.0,                     !- Lower Limit Value
    1.0,                     !- Upper Limit Value
    CONTINUOUS;              !- Numeric Type


  Schedule:Compact,
    HVACAvailSched,          !- Name
    Fraction,                !- Schedule Type Limits Name
    Through: 12/31,          !- Field 1
    For: AllDays,            !- Field 2
    Until: 24:00,1.0;        !- Field 3

  Schedule:Compact,
    Dual Heating Setpoints,  !- Name
    Temperature,             !- Schedule Type Limits Name
    Through: 12/31,          !- Field 1
    For: AllDays,            !- Field 2
    Until: 24:00,23.0;       !- Field 3

  Schedule:Compact,
    Dual Cooling Setpoints,  !- Name
    Temperature,             !- Schedule Type Limits Name
    Through: 12/31,          !- Field 1
    For: AllDays,            !- Field 2
    Until: 24:00,23.0;       !- Field 3

  Schedule:Compact,
    Dual Zone Control Type Sched,  !- Name
    Control Type,            !- Schedule Type Limits Name
    Through: 12/31,          !- Field 1
    For: AllDays,            !- Field 2
    Until: 24:00,4;          !- Field 3

  NodeList,
    ZoneInlets,              !- Name
    Zone Inlet Node;         !- Node 1 Name

  NodeList,
    Supply Air Temp Nodes,   !- Name
    Heating Coil Air Inlet Node,  !- Node 1 Name
    Air Loop Outlet Node;    !- Node 2 Name

  BranchList,
    Air Loop Branches,       !- Name
    Air Loop Main Branch;    !- Branch 1 Name

  Branch,
    Air Loop Main Branch,    !- Name
    ,                        !- Pressure Drop Curve Name
    Fan:ConstantVolume,      !- Component 1 Object Type
    Supply Fan 1,            !- Component 1 Name
    Air Loop Inlet Node,     !- Component 1 Inlet Node Name
    Cooling Coil Air Inlet Node,  !- Component 1 Outlet Node Name
    CoilSystem:Cooling:DX,   !- Component 2 Object Type
    DX Cooling Coil System 1,!- Component 2 Name
    Cooling Coil Air Inlet Node,  !- Component 2 Inlet Node Name
    Heating Coil Air Inlet Node,  !- Component 2 Outlet Node Name
    Coil:Heating:Fuel,       !- Component 3 Object Type
    Main Heating Coil 1,     !- Component 3 Name
    Heating Coil Air Inlet Node,  !- Component 3 Inlet Node Name
    Air Loop Outlet Node;    !- Component 3 Outlet Node Name

  AirLoopHVAC,
    Typical Residential System,  !- Name
    ,                        !- Controller List Name
    Reheat System 1 Avail List,  !- Availability Manager List Name
    1.18,                    !- Design Supply Air Flow Rate {m3/s}
    Air Loop Branches,       !- Branch List Name
    ,                        !- Connector List Name
    Air Loop Inlet Node,     !- Supply Side Inlet Node Name
    Return Air Mixer Outlet, !- Demand Side Outlet Node Name
    Zone Equipment Inlet Node,  !- Demand Side Inlet Node Names
    Air Loop Outlet Node;    !- Supply Side Outlet Node Names

  AirflowNetwork:SimulationControl,
    House AirflowNetwork,    !- Name
    MultizoneWithDistribution,  !- AirflowNetwork Control
    SurfaceAverageCalculation,  !- Wind Pressure Coefficient Type
    ,                        !- AirflowNetwork Wind Pressure Coefficient Array Name
    ,                        !- Height Selection for Local Wind Pressure Calculation
    LOWRISE,                 !- Building Type
    500,                     !- Maximum Number of Iterations {dimensionless}
    ZeroNodePressures,       !- Initialization Type
    1.0E-04,                 !- Relative Airflow Convergence Tolerance {dimensionless}
    1.0E-06,                 !- Absolute Airflow Convergence Tolerance {kg/s}
    -0.5,                    !- Convergence Acceleration Limit {dimensionless}
    0.0,                     !- Azimuth Angle of Long Axis of Building {deg}
    1.0;                     !- Ratio of Building Width Along Short Axis to Width Along Long Axis

  AirflowNetwork:MultiZone:Zone,
    OCCUPIED ZONE,             !- Zone Name
    NOVENT,                  !- Ventilation Control Mode
    ,                        !- Ventilation Control Zone Temperature Setpoint Schedule Name
    1.0,                     !- Minimum Venting Open Factor {dimensionless}
    0.0,                     !- Indoor and Outdoor Temperature Difference Lower Limit For Maximum Venting Open Factor {deltaC}