!-Generator IDFEditor 1.48
!-Option SortedOrder

!-NOTE: All comments with '!-' are ignored by the IDFEditor and are generated automatically.
!-      Use '!' comments if they need to be retained when using the IDFEditor.


!-   ===========  ALL OBJECTS IN CLASS: VERSION ===========

Version,
    8.7;                     !- Version Identifier


!-   ===========  ALL OBJECTS IN CLASS: SIMULATIONCONTROL ===========

SimulationControl,
    No,                      !- Do Zone Sizing Calculation
    No,                      !- Do System Sizing Calculation
    No,                      !- Do Plant Sizing Calculation
    Yes,                     !- Run Simulation for Sizing Periods
    No;                      !- Run Simulation for Weather File Run Periods


!-   ===========  ALL OBJECTS IN CLASS: BUILDING ===========

Building,
    Exercise 1A,             !- Name
    0.0,                     !- North Axis {deg}
    Country,                 !- Terrain
    0.04,                    !- Loads Convergence Tolerance Value
    0.4,                     !- Temperature Convergence Tolerance Value {deltaC}
    FullInteriorAndExterior, !- Solar Distribution
    ,                        !- Maximum Number of Warmup Days
    6;                       !- Minimum Number of Warmup Days


!-   ===========  ALL OBJECTS IN CLASS: SHADOWCALCULATION ===========

ShadowCalculation,
    AverageOverDaysInFrequency,  !- Calculation Method
    20;                      !- Calculation Frequency


!-   ===========  ALL OBJECTS IN CLASS: SURFACECONVECTIONALGORITHM:INSIDE ===========

SurfaceConvectionAlgorithm:Inside,
    TARP;                    !- Algorithm


!-   ===========  ALL OBJECTS IN CLASS: SURFACECONVECTIONALGORITHM:OUTSIDE ===========

SurfaceConvectionAlgorithm:Outside,
    TARP;                    !- Algorithm


!-   ===========  ALL OBJECTS IN CLASS: HEATBALANCEALGORITHM ===========

HeatBalanceAlgorithm,
    ConductionTransferFunction;  !- Algorithm


!-   ===========  ALL OBJECTS IN CLASS: TIMESTEP ===========

Timestep,
    4;                       !- Number of Timesteps per Hour


!-   ===========  ALL OBJECTS IN CLASS: SITE:LOCATION ===========

Site:Location,
    Pheonix,                 !- Name
    33.43,                   !- Latitude {deg}
    -112.02,                 !- Longitude {deg}
    -7.0,                    !- Time Zone {hr}
    339.0;                   !- Elevation {m}


!-   ===========  ALL OBJECTS IN CLASS: SIZINGPERIOD:DESIGNDAY ===========

! CHICAGO_IL_USA Cooling (DB=>MWB) .4%, MaxDB=  32.80 MWB=  23.60
SizingPeriod:DesignDay,
    CHICAGO_IL_USA Cooling .4% Conditions DB=>MWB,  !- Name
    7,                       !- Month
    21,                      !- Day of Month
    SummerDesignDay,         !- Day Type
    32.80000,                !- Maximum Dry-Bulb Temperature {C}
    10.90000,                !- Daily Dry-Bulb Temperature Range {deltaC}
    ,                        !- Dry-Bulb Temperature Range Modifier Type
    ,                        !- Dry-Bulb Temperature Range Modifier Day Schedule Name
    Wetbulb,                 !- Humidity Condition Type
    23.60000,                !- Wetbulb or DewPoint at Maximum Dry-Bulb {C}
    ,                        !- Humidity Condition Day Schedule Name
    ,                        !- Humidity Ratio at Maximum Dry-Bulb {kgWater/kgDryAir}
    ,                        !- Enthalpy at Maximum Dry-Bulb {J/kg}
    ,                        !- Daily Wet-Bulb Temperature Range {deltaC}
    99063.21,                !- Barometric Pressure {Pa}
    0.0,                     !- Wind Speed {m/s}
    0.0,                     !- Wind Direction {deg}
    No,                      !- Rain Indicator
    No,                      !- Snow Indicator
    No,                      !- Daylight Saving Time Indicator
    ASHRAEClearSky,          !- Solar Model Indicator
    ,                        !- Beam Solar Day Schedule Name
    ,                        !- Diffuse Solar Day Schedule Name
    ,                        !- ASHRAE Clear Sky Optical Depth for Beam Irradiance (taub) {dimensionless}
    ,                        !- ASHRAE Clear Sky Optical Depth for Diffuse Irradiance (taud) {dimensionless}
    1.000000;                !- Sky Clearness

! CHICAGO_IL_USA Heating 99.6%, MaxDB= -21.20 Wind Speed=   4.60 Wind Dir= 270.00
SizingPeriod:DesignDay,
    CHICAGO_IL_USA Heating 99.6% Conditions,  !- Name
    1,                       !- Month
    21,                      !- Day of Month
    WinterDesignDay,         !- Day Type
    -21.20000,               !- Maximum Dry-Bulb Temperature {C}
    0.0,                     !- Daily Dry-Bulb Temperature Range {deltaC}
    ,                        !- Dry-Bulb Temperature Range Modifier Type
    ,                        !- Dry-Bulb Temperature Range Modifier Day Schedule Name
    Wetbulb,                 !- Humidity Condition Type
    -21.20000,               !- Wetbulb or DewPoint at Maximum Dry-Bulb {C}
    ,                        !- Humidity Condition Day Schedule Name
    ,                        !- Humidity Ratio at Maximum Dry-Bulb {kgWater/kgDryAir}
    ,                        !- Enthalpy at Maximum Dry-Bulb {J/kg}
    ,                        !- Daily Wet-Bulb Temperature Range {deltaC}
    99063.21,                !- Barometric Pressure {Pa}
    4.600000,                !- Wind Speed {m/s}
    270.0000,                !- Wind Direction {deg}
    No,                      !- Rain Indicator
    No,                      !- Snow Indicator
    No,                      !- Daylight Saving Time Indicator
    ASHRAEClearSky,          !- Solar Model Indicator
    ,                        !- Beam Solar Day Schedule Name
    ,                        !- Diffuse Solar Day Schedule Name
    ,                        !- ASHRAE Clear Sky Optical Depth for Beam Irradiance (taub) {dimensionless}
    ,                        !- ASHRAE Clear Sky Optical Depth for Diffuse Irradiance (taud) {dimensionless}
    0.0;                     !- Sky Clearness


!-   ===========  ALL OBJECTS IN CLASS: RUNPERIOD ===========

RunPeriod,
    ,                        !- Name
    1,                       !- Begin Month
    1,                       !- Begin Day of Month
    12,                      !- End Month
    31,                      !- End Day of Month
    Tuesday,                 !- Day of Week for Start Day
    Yes,                     !- Use Weather File Holidays and Special Days
    Yes,                     !- Use Weather File Daylight Saving Period
    No,                      !- Apply Weekend Holiday Rule
    Yes,                     !- Use Weather File Rain Indicators
    Yes;                     !- Use Weather File Snow Indicators


!-   ===========  ALL OBJECTS IN CLASS: SITE:GROUNDTEMPERATURE:BUILDINGSURFACE ===========

Site:GroundTemperature:BuildingSurface,
    23.0,                    !- January Ground Temperature {C}
    23.0,                    !- February Ground Temperature {C}
    23.0,                    !- March Ground Temperature {C}
    23.0,                    !- April Ground Temperature {C}
    23.0,                    !- May Ground Temperature {C}
    23.0,                    !- June Ground Temperature {C}
    23.0,                    !- July Ground Temperature {C}
    23.0,                    !- August Ground Temperature {C}
    23.0,                    !- September Ground Temperature {C}
    23.0,                    !- October Ground Temperature {C}
    23.0,                    !- November Ground Temperature {C}
    23.0;                    !- December Ground Temperature {C}


!-   ===========  ALL OBJECTS IN CLASS: SCHEDULETYPELIMITS ===========

ScheduleTypeLimits,
    Temperature,             !- Name
    -60,                     !- Lower Limit Value
    200,                     !- Upper Limit Value
    CONTINUOUS,              !- Numeric Type
    Temperature;             !- Unit Type

ScheduleTypeLimits,
    Control Type,            !- Name
    0,                       !- Lower Limit Value
    4,                       !- Upper Limit Value
    DISCRETE;                !- Numeric Type

ScheduleTypeLimits,
    Fraction,                !- Name
    0.0,                     !- Lower Limit Value
    1.0,                     !- Upper Limit Value
    CONTINUOUS;              !- Numeric Type


!-   ===========  ALL OBJECTS IN CLASS: SCHEDULE:COMPACT ===========

Schedule:Compact,
    HVACAvailSched,          !- Name
    Fraction,                !- Schedule Type Limits Name
    Through: 12/31,          !- Field 1
    For: AllDays,            !- Field 2
    Until: 24:00,            !- Field 3
    1.0;                     !- Field 4

Schedule:Compact,
    Dual Heating Setpoints,  !- Name
    Temperature,             !- Schedule Type Limits Name
    Through: 12/31,          !- Field 1
    For: AllDays,            !- Field 2
    Until: 24:00,            !- Field 3
    23.0;                    !- Field 4

Schedule:Compact,
    Dual Cooling Setpoints,  !- Name
    Temperature,             !- Schedule Type Limits Name
    Through: 12/31,          !- Field 1
    For: AllDays,            !- Field 2
    Until: 24:00,            !- Field 3
    23.0;                    !- Field 4

Schedule:Compact,
    Dual Zone Control Type Sched,  !- Name
    Control Type,            !- Schedule Type Limits Name
    Through: 12/31,          !- Field 1
    For: AllDays,            !- Field 2
    Until: 24:00,            !- Field 3
    4;                       !- Field 4


!-   ===========  ALL OBJECTS IN CLASS: MATERIAL ===========

Material,
    Gypsum Board,            !- Name
    MediumSmooth,            !- Roughness
    0.0127,                  !- Thickness {m}
    0.160158849,             !- Conductivity {W/m-K}
    800.923168698,           !- Density {kg/m3}
    1087.84,                 !- Specific Heat {J/kg-K}
    0.9,                     !- Thermal Absorptance
    0.9,                     !- Solar Absorptance
    1.0;                     !- Visible Absorptance

Material,
    Gypsum Board Wall,       !- Name
    MediumSmooth,            !- Roughness
    0.0127,                  !- Thickness {m}
    0.160158849,             !- Conductivity {W/m-K}
    800.923168698,           !- Density {kg/m3}
    1087.84,                 !- Specific Heat {J/kg-K}
    1e-6,                    !- Thermal Absorptance
    1e-6,                    !- Solar Absorptance
    1.0;                     !- Visible Absorptance

Material,
    R-19 Insulation,         !- Name
    Rough,                   !- Roughness
    0.88871384,              !- Thickness {m}
    0.25745056,              !- Conductivity {W/m-K}
    3.05091836,              !- Density {kg/m3}
    794.96,                  !- Specific Heat {J/kg-K}
    0.9,                     !- Thermal Absorptance
    0.9,                     !- Solar Absorptance
    1.0;                     !- Visible Absorptance

Material,
    R-A Lot,                 !- Name
    Rough,                   !- Roughness
    1.25,                    !- Thickness {m}
    0.001,                   !- Conductivity {W/m-K}
    3.05091836,              !- Density {kg/m3}
    794.96,                  !- Specific Heat {J/kg-K}
    0.9,                     !- Thermal Absorptance
    0.9,                     !- Solar Absorptance
    1.0;                     !- Visible Absorptance

Material,
    Shingles,                !- Name
    Rough,                   !- Roughness
    0.006348984,             !- Thickness {m}
    0.081932979,             !- Conductivity {W/m-K}
    1121.292436177,          !- Density {kg/m3}
    1256.04,                 !- Specific Heat {J/kg-K}
    0.9,                     !- Thermal Absorptance
    0.9,                     !- Solar Absorptance
    1.0;                     !- Visible Absorptance

Material,
    Felt,                    !- Name
    Rough,                   !- Roughness
    0.00216408,              !- Thickness {m}
    0.081932979,             !- Conductivity {W/m-K}
    1121.292436177,          !- Density {kg/m3}
    1507.248,                !- Specific Heat {J/kg-K}
    0.9,                     !- Thermal Absorptance
    0.9,                     !- Solar Absorptance
    1.0;                     !- Visible Absorptance

Material,
    Plywood,                 !- Name
    Rough,                   !- Roughness
    0.012701016,             !- Thickness {m}
    0.11544,                 !- Conductivity {W/m-K}
    544.627754714,           !- Density {kg/m3}
    1214.172,                !- Specific Heat {J/kg-K}
    0.9,                     !- Thermal Absorptance
    0.9,                     !- Solar Absorptance
    1.0;                     !- Visible Absorptance

Material,
    Hardboard Siding-Gable,  !- Name
    MediumSmooth,            !- Roughness
    0.0111125,               !- Thickness {m}
    0.214957246,             !- Conductivity {W/m-K}
    640.736,                 !- Density {kg/m3}
    1172.304,                !- Specific Heat {J/kg-K}
    0.90,                    !- Thermal Absorptance
    0.7,                     !- Solar Absorptance
    1.0;                     !- Visible Absorptance

Material,
    Studs,                   !- Name
    Rough,                   !- Roughness
    0.0003137,               !- Thickness {m}
    0.02189835,              !- Conductivity {W/m-K}
    448.516974471,           !- Density {kg/m3}
    1632.852,                !- Specific Heat {J/kg-K}
    0.90,                    !- Thermal Absorptance
    0.7,                     !- Solar Absorptance
    1.0;                     !- Visible Absorptance

Material,
    Hardboard Siding-Eave,   !- Name
    MediumSmooth,            !- Roughness
    0.0111125,               !- Thickness {m}
    0.214957246,             !- Conductivity {W/m-K}
    640.736,                 !- Density {kg/m3}
    1172.304,                !- Specific Heat {J/kg-K}
    0.90,                    !- Thermal Absorptance
    0.7,                     !- Solar Absorptance
    1.0;                     !- Visible Absorptance

Material,
    HF-C5,                   !- Name
    MediumRough,             !- Roughness
    0.1015000,               !- Thickness {m}
    1.729600,                !- Conductivity {W/m-K}
    2243.000,                !- Density {kg/m3}
    837.0000,                !- Specific Heat {J/kg-K}
    0.9000000,               !- Thermal Absorptance
    0.6500000,               !- Solar Absorptance
    1.0;                     !- Visible Absorptance


!-   ===========  ALL OBJECTS IN CLASS: CONSTRUCTION ===========

Construction,
    CeilingConstruction,     !- Name
    R-19 Insulation,         !- Outside Layer
    Gypsum Board;            !- Layer 2

Construction,
    Reverse:CeilingConstruction,  !- Name
    Gypsum Board,            !- Outside Layer
    R-19 Insulation;         !- Layer 2

Construction,
    Roof,                    !- Name
    Shingles,                !- Outside Layer
    Felt,                    !- Layer 2
    Plywood;                 !- Layer 3

Construction,
    Gables,                  !- Name
    Hardboard Siding-Eave;   !- Outside Layer

Construction,
    Eave Walls,              !- Name
    Hardboard Siding-Eave;   !- Outside Layer

Construction,
    Walls,                   !- Name
    Hardboard Siding-Eave,   !- Outside Layer
    R-A Lot,                 !- Layer 2
    Gypsum Board Wall;       !- Layer 3

Construction,
    LTFLOOR,                 !- Name
    HF-C5;                   !- Outside Layer


!-   ===========  ALL OBJECTS IN CLASS: GLOBALGEOMETRYRULES ===========

GlobalGeometryRules,
    UpperLeftCorner,         !- Starting Vertex Position
    Counterclockwise,        !- Vertex Entry Direction
    World;                   !- Coordinate System


!-   ===========  ALL OBJECTS IN CLASS: ZONE ===========

Zone,
    OCCUPIED ZONE,           !- Name
    0,                       !- Direction of Relative North {deg}
    0,                       !- X Origin {m}
    0,                       !- Y Origin {m}
    0,                       !- Z Origin {m}
    1,                       !- Type
    1,                       !- Multiplier
    autocalculate,           !- Ceiling Height {m}
    autocalculate;           !- Volume {m3}

Zone,
    ATTIC ZONE,              !- Name
    0,                       !- Direction of Relative North {deg}
    0,                       !- X Origin {m}
    0,                       !- Y Origin {m}
    0,                       !- Z Origin {m}
    1,                       !- Type
    1,                       !- Multiplier
    autocalculate,           !- Ceiling Height {m}
    autocalculate;           !- Volume {m3}


!-   ===========  ALL OBJECTS IN CLASS: BUILDINGSURFACE:DETAILED ===========

BuildingSurface:Detailed,
    North Wall,              !- Name
    Wall,                    !- Surface Type
    Walls,                   !- Construction Name
    OCCUPIED ZONE,           !- Zone Name
    Outdoors,                !- Outside Boundary Condition
    ,                        !- Outside Boundary Condition Object
    SunExposed,              !- Sun Exposure
    WindExposed,             !- Wind Exposure
    0.50,                    !- View Factor to Ground
    4,                       !- Number of Vertices
    16.764,                  !- Vertex 1 X-coordinate {m}
    8.5344,                  !- Vertex 1 Y-coordinate {m}
    2.70,                    !- Vertex 1 Z-coordinate {m}
    16.764,                  !- Vertex 2 X-coordinate {m}
    8.5344,                  !- Vertex 2 Y-coordinate {m}
    0,                       !- Vertex 2 Z-coordinate {m}
    0,                       !- Vertex 3 X-coordinate {m}
    8.5344,                  !- Vertex 3 Y-coordinate {m}
    0,                       !- Vertex 3 Z-coordinate {m}
    0,                       !- Vertex 4 X-coordinate {m}
    8.5344,                  !- Vertex 4 Y-coordinate {m}
    2.70;                    !- Vertex 4 Z-coordinate {m}

BuildingSurface:Detailed,
    North Wall Attic,        !- Name
    Wall,                    !- Surface Type
    Eave Walls,              !- Construction Name
    ATTIC ZONE,              !- Zone Name
    Outdoors,                !- Outside Boundary Condition
    ,                        !- Outside Boundary Condition Object
    SunExposed,              !- Sun Exposure
    WindExposed,             !- Wind Exposure
    0.50,                    !- View Factor to Ground
    4,                       !- Number of Vertices
    16.764,                  !- Vertex 1 X-coordinate {m}
    8.5344,                  !- Vertex 1 Y-coordinate {m}
    2.7254,                  !- Vertex 1 Z-coordinate {m}
    16.764,                  !- Vertex 2 X-coordinate {m}
    8.5344,                  !- Vertex 2 Y-coordinate {m}
    2.70,                    !- Vertex 2 Z-coordinate {m}
    0,                       !- Vertex 3 X-coordinate {m}
    8.5344,                  !- Vertex 3 Y-coordinate {m}
    2.70,                    !- Vertex 3 Z-coordinate {m}
    0,                       !- Vertex 4 X-coordinate {m}
    8.5344,                  !- Vertex 4 Y-coordinate {m}
    2.7254;                  !- Vertex 4 Z-coordinate {m}

BuildingSurface:Detailed,
    East Wall,               !- Name
    Wall,                    !- Surface Type
    Walls,                   !- Construction Name
    OCCUPIED ZONE,           !- Zone Name
    Outdoors,                !- Outside Boundary Condition
    ,                        !- Outside Boundary Condition Object
    SunExposed,              !- Sun Exposure
    WindExposed,             !- Wind Exposure
    0.50,                    !- View Factor to Ground
    4,                       !- Number of Vertices
    16.764,                  !- Vertex 1 X-coordinate {m}
    0,                       !- Vertex 1 Y-coordinate {m}
    2.70,                    !- Vertex 1 Z-coordinate {m}
    16.764,                  !- Vertex 2 X-coordinate {m}
    0,                       !- Vertex 2 Y-coordinate {m}
    0,                       !- Vertex 2 Z-coordinate {m}
    16.764,                  !- Vertex 3 X-coordinate {m}
    8.5344,                  !- Vertex 3 Y-coordinate {m}
    0,                       !- Vertex 3 Z-coordinate {m}
    16.764,                  !- Vertex 4 X-coordinate {m}
    8.5344,                  !- Vertex 4 Y-coordinate {m}
    2.70;                    !- Vertex 4 Z-coordinate {m}

BuildingSurface:Detailed,
    East Wall Attic,         !- Name
    Wall,                    !- Surface Type
    Gables,              !- Construction Name
    ATTIC ZONE,              !- Zone Name
    Outdoors,                !- Outside Boundary Condition
    ,                        !- Outside Boundary Condition Object
    SunExposed,              !- Sun Exposure
    WindExposed,             !- Wind Exposure
    0.50,                    !- View Factor to Ground
    5,                       !- Number of Vertices
    16.764,                  !- Vertex 1 X-coordinate {m}
    0,                       !- Vertex 1 Y-coordinate {m}
    2.7254,                  !- Vertex 1 Z-coordinate {m}
    16.764,                  !- Vertex 2 X-coordinate {m}
    0,                       !- Vertex 2 Y-coordinate {m}
    2.70,                    !- Vertex 2 Z-coordinate {m}
    16.764,                  !- Vertex 3 X-coordinate {m}
    8.5344,                  !- Vertex 3 Y-coordinate {m}
    2.70,                    !- Vertex 3 Z-coordinate {m}
    16.764,                  !- Vertex 4 X-coordinate {m}
    8.5344,                  !- Vertex 4 Y-coordinate {m}
    2.7254,                  !- Vertex 4 Z-coordinate {m}
    16.764,                  !- Vertex 5 X-coordinate {m}
    4.2672,                  !- Vertex 5 Y-coordinate {m}
    4.5034;                  !- Vertex 5 Z-coordinate {m}

BuildingSurface:Detailed,
    South Wall,              !- Name
    Wall,                    !- Surface Type
    Walls,                   !- Construction Name
    OCCUPIED ZONE,           !- Zone Name
    Outdoors,                !- Outside Boundary Condition
    ,                        !- Outside Boundary Condition Object
    SunExposed,              !- Sun Exposure
    WindExposed,             !- Wind Exposure
    0.50,                    !- View Factor to Ground
    4,                       !- Number of Vertices
    0,                       !- Vertex 1 X-coordinate {m}
    0,                       !- Vertex 1 Y-coordinate {m}
    2.70,                    !- Vertex 1 Z-coordinate {m}
    0,                       !- Vertex 2 X-coordinate {m}
    0,                       !- Vertex 2 Y-coordinate {m}
    0,                       !- Vertex 2 Z-coordinate {m}
    16.764,                  !- Vertex 3 X-coordinate {m}
    0,                       !- Vertex 3 Y-coordinate {m}
    0,                       !- Vertex 3 Z-coordinate {m}
    16.764,                  !- Vertex 4 X-coordinate {m}
    0,                       !- Vertex 4 Y-coordinate {m}
    2.70;                    !- Vertex 4 Z-coordinate {m}

BuildingSurface:Detailed,
    South Wall Attic,        !- Name
    Wall,                    !- Surface Type
    Eave Walls,              !- Construction Name
    ATTIC ZONE,              !- Zone Name
    Outdoors,                !- Outside Boundary Condition
    ,                        !- Outside Boundary Condition Object
    SunExposed,              !- Sun Exposure
    WindExposed,             !- Wind Exposure
    0.50,                    !- View Factor to Ground
    4,                       !- Number of Vertices
    0,                       !- Vertex 1 X-coordinate {m}
    0,                       !- Vertex 1 Y-coordinate {m}
    2.7254,                  !- Vertex 1 Z-coordinate {m}
    0,                       !- Vertex 2 X-coordinate {m}
    0,                       !- Vertex 2 Y-coordinate {m}
    2.70,                    !- Vertex 2 Z-coordinate {m}
    16.764,                  !- Vertex 3 X-coordinate {m}
    0,                       !- Vertex 3 Y-coordinate {m}
    2.70,                    !- Vertex 3 Z-coordinate {m}
    16.764,                  !- Vertex 4 X-coordinate {m}
    0,                       !- Vertex 4 Y-coordinate {m}
    2.7254;                  !- Vertex 4 Z-coordinate {m}

BuildingSurface:Detailed,
    West Wall,               !- Name
    Wall,                    !- Surface Type
    Walls,                   !- Construction Name
    OCCUPIED ZONE,           !- Zone Name
    Outdoors,                !- Outside Boundary Condition
    ,                        !- Outside Boundary Condition Object
    SunExposed,              !- Sun Exposure
    WindExposed,             !- Wind Exposure
    0.50,                    !- View Factor to Ground
    4,                       !- Number of Vertices
    0,                       !- Vertex 1 X-coordinate {m}
    8.5344,                  !- Vertex 1 Y-coordinate {m}
    2.70,                    !- Vertex 1 Z-coordinate {m}
    0,                       !- Vertex 2 X-coordinate {m}
    8.5344,                  !- Vertex 2 Y-coordinate {m}
    0,                       !- Vertex 2 Z-coordinate {m}
    0,                       !- Vertex 3 X-coordinate {m}
    0,                       !- Vertex 3 Y-coordinate {m}
    0,                       !- Vertex 3 Z-coordinate {m}
    0,                       !- Vertex 4 X-coordinate {m}
    0,                       !- Vertex 4 Y-coordinate {m}
    2.70;                    !- Vertex 4 Z-coordinate {m}

BuildingSurface:Detailed,
    West Wall Attic,         !- Name
    Wall,                    !- Surface Type
    Gables,              !- Construction Name
    ATTIC ZONE,              !- Zone Name
    Outdoors,                !- Outside Boundary Condition
    ,                        !- Outside Boundary Condition Object
    SunExposed,              !- Sun Exposure
    WindExposed,             !- Wind Exposure
    0.50,                    !- View Factor to Ground
    5,                       !- Number of Vertices
    0,                       !- Vertex 1 X-coordinate {m}
    8.5344,                  !- Vertex 1 Y-coordinate {m}
    2.7254,                  !- Vertex 1 Z-coordinate {m}
    0,                       !- Vertex 2 X-coordinate {m}
    8.5344,                  !- Vertex 2 Y-coordinate {m}
    2.70,                    !- Vertex 2 Z-coordinate {m}
    0,                       !- Vertex 3 X-coordinate {m}
    0,                       !- Vertex 3 Y-coordinate {m}
    2.70,                    !- Vertex 3 Z-coordinate {m}
    0,                       !- Vertex 4 X-coordinate {m}
    0,                       !- Vertex 4 Y-coordinate {m}
    2.7254,                  !- Vertex 4 Z-coordinate {m}
    0,                       !- Vertex 5 X-coordinate {m}
    4.2672,                  !- Vertex 5 Y-coordinate {m}
    4.5034;                  !- Vertex 5 Z-coordinate {m}

BuildingSurface:Detailed,
    Zone Floor,              !- Name
    Floor,                   !- Surface Type
    LTFLOOR,                 !- Construction Name
    OCCUPIED ZONE,           !- Zone Name
    Ground,                  !- Outside Boundary Condition
    ,                        !- Outside Boundary Condition Object
    NoSun,                   !- Sun Exposure
    NoWind,                  !- Wind Exposure
    0,                       !- View Factor to Ground
    4,                       !- Number of Vertices
    0,                       !- Vertex 1 X-coordinate {m}
    0,                       !- Vertex 1 Y-coordinate {m}
    0,                       !- Vertex 1 Z-coordinate {m}
    0,                       !- Vertex 2 X-coordinate {m}
    8.5344,                  !- Vertex 2 Y-coordinate {m}
    0,                       !- Vertex 2 Z-coordinate {m}
    16.764,                  !- Vertex 3 X-coordinate {m}
    8.5344,                  !- Vertex 3 Y-coordinate {m}
    0,                       !- Vertex 3 Z-coordinate {m}
    16.764,                  !- Vertex 4 X-coordinate {m}
    0,                       !- Vertex 4 Y-coordinate {m}
    0;                       !- Vertex 4 Z-coordinate {m}

BuildingSurface:Detailed,
    Zone Ceiling,            !- Name
    Ceiling,                 !- Surface Type
    CeilingConstruction,     !- Construction Name
    OCCUPIED ZONE,           !- Zone Name
    Surface,                 !- Outside Boundary Condition
    Attic Floor,             !- Outside Boundary Condition Object
    NoSun,                   !- Sun Exposure
    NoWind,                  !- Wind Exposure
    0,                       !- View Factor to Ground
    4,                       !- Number of Vertices
    0,                       !- Vertex 1 X-coordinate {m}
    8.5344,                  !- Vertex 1 Y-coordinate {m}
    2.70,                    !- Vertex 1 Z-coordinate {m}
    0,                       !- Vertex 2 X-coordinate {m}
    0,                       !- Vertex 2 Y-coordinate {m}
    2.70,                    !- Vertex 2 Z-coordinate {m}
    16.764,                  !- Vertex 3 X-coordinate {m}
    0,                       !- Vertex 3 Y-coordinate {m}
    2.70,                    !- Vertex 3 Z-coordinate {m}
    16.764,                  !- Vertex 4 X-coordinate {m}
    8.5344,                  !- Vertex 4 Y-coordinate {m}
    2.70;                    !- Vertex 4 Z-coordinate {m}

BuildingSurface:Detailed,
    Attic Floor,             !- Name
    Floor,                   !- Surface Type
    Reverse:CeilingConstruction,  !- Construction Name
    ATTIC ZONE,              !- Zone Name
    Surface,                 !- Outside Boundary Condition
    Zone Ceiling,            !- Outside Boundary Condition Object
    NoSun,                   !- Sun Exposure
    NoWind,                  !- Wind Exposure
    0,                       !- View Factor to Ground
    4,                       !- Number of Vertices
    16.764,                  !- Vertex 1 X-coordinate {m}
    8.5344,                  !- Vertex 1 Y-coordinate {m}
    2.70,                    !- Vertex 1 Z-coordinate {m}
    16.764,                  !- Vertex 2 X-coordinate {m}