  Version,24.1;

  Timestep,4;

  Building,
    Building 1,              !- Name
    ,                        !- North Axis {deg}
    Suburbs,                 !- Terrain
    ,                        !- Loads Convergence Tolerance Value {W}
    ,                        !- Temperature Convergence Tolerance Value {deltaC}
    ,                        !- Solar Distribution
    ,                        !- Maximum Number of Warmup Days
    ;                        !- Minimum Number of Warmup Days

  Zone,
    attic - unvented,        !- Name
    0,                       !- Direction of Relative North {deg}
    0,                       !- X Origin {m}
    0,                       !- Y Origin {m}
    0,                       !- Z Origin {m}
    ,                        !- Type
    1,                       !- Multiplier
    ,                        !- Ceiling Height {m}
    104.690985541999,        !- Volume {m3}
    ,                        !- Floor Area {m2}
    ASTMC1340,               !- Zone Inside Convection Algorithm
    ,                        !- Zone Outside Convection Algorithm
    Yes;                     !- Part of Total Floor Area

  BuildingSurface:Detailed,
    Roof:0,                  !- Name
    Roof,                    !- Surface Type
    Roof construction,       !- Construction Name
    attic - unvented,        !- Zone Name
    ,                        !- Space Name
    Outdoors,                !- Outside Boundary Condition
    ,                        !- Outside Boundary Condition Object
    SunExposed,              !- Sun Exposure
    WindExposed,             !- Wind Exposure
    ,                        !- View Factor to Ground
    ,                        !- Number of Vertices
    10.8714269967499,13.8324615907045,2.4384,  !- X,Y,Z ==> Vertex 1 {m}
    10.8714267139162,3.23874305942385,7.73525926564035,  !- X,Y,Z ==> Vertex 2 {m}
    13.8324610602216,3.23874298036942,7.73525926564035,  !- X,Y,Z ==> Vertex 3 {m}
    13.8324613430553,13.8324615116501,2.4384;  !- X,Y,Z ==> Vertex 4 {m}

  BuildingSurface:Detailed,
    Roof:180,                !- Name
    Roof,                    !- Surface Type
    Roof construction,       !- Construction Name
    attic - unvented,        !- Zone Name
    ,                        !- Space Name
    Outdoors,                !- Outside Boundary Condition
    ,                        !- Outside Boundary Condition Object
    SunExposed,              !- Sun Exposure
    WindExposed,             !- Wind Exposure
    ,                        !- View Factor to Ground
    ,                        !- Number of Vertices
    -10.8714266274474,-13.8324618809526,2.4384,  !- X,Y,Z ==> Vertex 1 {m}
    -10.8714266274474,-3.2387433496719,7.73525926564035,  !- X,Y,Z ==> Vertex 2 {m}
    -13.8324609737528,-3.2387433496719,7.73525926564035,  !- X,Y,Z ==> Vertex 3 {m}
    -13.8324609737528,-13.8324618809526,2.4384;  !- X,Y,Z ==> Vertex 4 {m}

  BuildingSurface:Detailed,
    Roof:270,                !- Name
    Roof,                    !- Surface Type
    Roof construction,       !- Construction Name
    attic - unvented,        !- Zone Name
    ,                        !- Space Name
    Outdoors,                !- Outside Boundary Condition
    ,                        !- Outside Boundary Condition Object
    SunExposed,              !- Sun Exposure
    WindExposed,             !- Wind Exposure
    ,                        !- View Factor to Ground
    ,                        !- Number of Vertices
    -13.8324620260767,10.8714264427962,2.4384,  !- X,Y,Z ==> Vertex 1 {m}
    -3.23874349479593,10.871426584213,7.73525926564035,  !- X,Y,Z ==> Vertex 2 {m}
    -3.23874353432315,13.8324609305184,7.73525926564035,  !- X,Y,Z ==> Vertex 3 {m}
    -13.8324620656039,13.8324607891015,2.4384;  !- X,Y,Z ==> Vertex 4 {m}

  BuildingSurface:Detailed,
    Roof:90,                 !- Name
    Roof,                    !- Surface Type
    Roof construction,       !- Construction Name
    attic - unvented,        !- Zone Name
    ,                        !- Space Name
    Outdoors,                !- Outside Boundary Condition
    ,                        !- Outside Boundary Condition Object
    SunExposed,              !- Sun Exposure
    WindExposed,             !- Wind Exposure
    ,                        !- View Factor to Ground
    ,                        !- Number of Vertices
    13.8324617358286,-10.8714268120987,2.4384,  !- X,Y,Z ==> Vertex 1 {m}
    3.23874320454788,-10.8714266706818,7.73525926564035,  !- X,Y,Z ==> Vertex 2 {m}
    3.23874316502066,-13.8324610169872,7.73525926564035,  !- X,Y,Z ==> Vertex 3 {m}
    13.8324616963014,-13.832461158404,2.4384;  !- X,Y,Z ==> Vertex 4 {m}

  BuildingSurface:Detailed,
    Surface 1 Reversed,      !- Name
    Floor,                   !- Surface Type
    FloorBelowAttic construction Reversed,  !- Construction Name
    attic - unvented,        !- Zone Name
    ,                        !- Space Name
    Surface,                 !- Outside Boundary Condition
    FloorBelowAttic,         !- Outside Boundary Condition Object
    NoSun,                   !- Sun Exposure
    NoWind,                  !- Wind Exposure
    ,                        !- View Factor to Ground
    ,                        !- Number of Vertices
    -5.59953355200234,-5.59953355200235,2.4384,  !- X,Y,Z ==> Vertex 1 {m}
    -5.59953355200234,5.59953355200235,2.4384,  !- X,Y,Z ==> Vertex 2 {m}
    5.59953355200234,5.59953355200235,2.4384,  !- X,Y,Z ==> Vertex 3 {m}
    5.59953355200234,-5.59953355200235,2.4384;  !- X,Y,Z ==> Vertex 4 {m}

  BuildingSurface:Detailed,
    WallAtticGable:0,        !- Name
    Wall,                    !- Surface Type
    WallAtticGable construction,  !- Construction Name
    attic - unvented,        !- Zone Name
    ,                        !- Space Name
    Outdoors,                !- Outside Boundary Condition
    ,                        !- Outside Boundary Condition Object
    SunExposed,              !- Sun Exposure
    WindExposed,             !- Wind Exposure
    ,                        !- View Factor to Ground
    ,                        !- Number of Vertices
    -12.9034308016384,13.832461232477,0,  !- X,Y,Z ==> Vertex 1 {m}
    -12.9034308016384,13.832461232477,2.4384,  !- X,Y,Z ==> Vertex 2 {m}
    -10.1411808016384,13.832461232477,2.4384,  !- X,Y,Z ==> Vertex 3 {m}
    -10.1411808016384,13.832461232477,0;  !- X,Y,Z ==> Vertex 4 {m}

  BuildingSurface:Detailed,
    WallAtticGable:180,      !- Name
    Wall,                    !- Surface Type
    WallAtticGable construction,  !- Construction Name
    attic - unvented,        !- Zone Name
    ,                        !- Space Name
    Outdoors,                !- Outside Boundary Condition
    ,                        !- Outside Boundary Condition Object
    SunExposed,              !- Sun Exposure
    WindExposed,             !- Wind Exposure
    ,                        !- View Factor to Ground
    ,                        !- Number of Vertices
    12.9034311709409,-13.832460887978,0,  !- X,Y,Z ==> Vertex 1 {m}
    12.9034311709409,-13.832460887978,2.4384,  !- X,Y,Z ==> Vertex 2 {m}
    10.1411811709409,-13.8324609617252,2.4384,  !- X,Y,Z ==> Vertex 3 {m}
    10.1411811709409,-13.8324609617252,0;  !- X,Y,Z ==> Vertex 4 {m}

  BuildingSurface:Detailed,
    WallAtticGable:270,      !- Name
    Wall,                    !- Surface Type
    WallAtticGable construction,  !- Construction Name
    attic - unvented,        !- Zone Name
    ,                        !- Space Name
    Outdoors,                !- Outside Boundary Condition
    ,                        !- Outside Boundary Condition Object
    SunExposed,              !- Sun Exposure
    WindExposed,             !- Wind Exposure
    ,                        !- View Factor to Ground
    ,                        !- Number of Vertices
    -13.8324610094154,-7.40331489862066,0,  !- X,Y,Z ==> Vertex 1 {m}
    -13.8324610094154,-7.40331489862066,2.4384,  !- X,Y,Z ==> Vertex 2 {m}
    -13.8324611200363,-4.64106489862066,2.4384,  !- X,Y,Z ==> Vertex 3 {m}
    -13.8324611200363,-4.64106489862066,0;  !- X,Y,Z ==> Vertex 4 {m}

  BuildingSurface:Detailed,
    WallAtticGable:90,       !- Name
    Wall,                    !- Surface Type
    WallAtticGable construction,  !- Construction Name
    attic - unvented,        !- Zone Name
    ,                        !- Space Name
    Outdoors,                !- Outside Boundary Condition
    ,                        !- Outside Boundary Condition Object
    SunExposed,              !- Sun Exposure
    WindExposed,             !- Wind Exposure
    ,                        !- View Factor to Ground
    ,                        !- Number of Vertices
    13.832461207071,7.40331452931817,0,  !- X,Y,Z ==> Vertex 1 {m}
    13.832461207071,7.40331452931817,2.4384,  !- X,Y,Z ==> Vertex 2 {m}
    13.8324612439446,4.64106452931817,2.4384,  !- X,Y,Z ==> Vertex 3 {m}
    13.8324612439446,4.64106452931817,0;  !- X,Y,Z ==> Vertex 4 {m}

  ZoneMixing,
    whole house fan mix,     !- Name
    attic - unvented,        !- Zone or Space Name
    Always On Continuous,    !- Schedule Name
    Flow/Zone,               !- Design Flow Rate Calculation Method
    0,                       !- Design Flow Rate {m3/s}
    ,                        !- Flow Rate per Floor Area {m3/s-m2}
    ,                        !- Flow Rate per Person {m3/s-person}
    ,                        !- Air Changes per Hour {1/hr}
    living space;            !- Source Zone or Space Name

  Schedule:Constant,Always On Continuous,Fractional 1,1;

  Zone,
    central ac and furnace airloop ret air zone,  !- Name
    0,                       !- Direction of Relative North {deg}
    0,                       !- X Origin {m}
    0,                       !- Y Origin {m}
    0,                       !- Z Origin {m}
    ,                        !- Type
    1,                       !- Multiplier
    ,                        !- Ceiling Height {m}
    1,                       !- Volume {m3}
    ,                        !- Floor Area {m2}
    ,                        !- Zone Inside Convection Algorithm
    ,                        !- Zone Outside Convection Algorithm
    No;                      !- Part of Total Floor Area

  BuildingSurface:Detailed,
    Surface 1,               !- Name
    Floor,                   !- Surface Type
    AdiabaticConst,          !- Construction Name
    central ac and furnace airloop ret air zone,  !- Zone Name
    ,                        !- Space Name
    Adiabatic,               !- Outside Boundary Condition
    ,                        !- Outside Boundary Condition Object
    NoSun,                   !- Sun Exposure
    NoWind,                  !- Wind Exposure
    ,                        !- View Factor to Ground
    ,                        !- Number of Vertices
    0,0,0,  !- X,Y,Z ==> Vertex 1 {m}
    0,1,0,  !- X,Y,Z ==> Vertex 2 {m}
    1,1,0,  !- X,Y,Z ==> Vertex 3 {m}
    1,0,0;  !- X,Y,Z ==> Vertex 4 {m}

  SurfaceProperty:ConvectionCoefficients,
    Surface 1,               !- Surface Name
    Inside,                  !- Convection Coefficient 1 Location
    Value,                   !- Convection Coefficient 1 Type
    30;                      !- Convection Coefficient 1 {W/m2-K}

  BuildingSurface:Detailed,
    Surface 2,               !- Name
    Wall,                    !- Surface Type
    AdiabaticConst,          !- Construction Name
    central ac and furnace airloop ret air zone,  !- Zone Name
    ,                        !- Space Name
    Adiabatic,               !- Outside Boundary Condition
    ,                        !- Outside Boundary Condition Object
    NoSun,                   !- Sun Exposure
    NoWind,                  !- Wind Exposure
    ,                        !- View Factor to Ground
    ,                        !- Number of Vertices
    0,1,1,  !- X,Y,Z ==> Vertex 1 {m}
    0,1,0,  !- X,Y,Z ==> Vertex 2 {m}
    0,0,0,  !- X,Y,Z ==> Vertex 3 {m}
    0,0,1;  !- X,Y,Z ==> Vertex 4 {m}

  SurfaceProperty:ConvectionCoefficients,
    Surface 2,               !- Surface Name
    Inside,                  !- Convection Coefficient 1 Location
    Value,                   !- Convection Coefficient 1 Type
    30;                      !- Convection Coefficient 1 {W/m2-K}

  BuildingSurface:Detailed,
    Surface 3,               !- Name
    Wall,                    !- Surface Type
    AdiabaticConst,          !- Construction Name
    central ac and furnace airloop ret air zone,  !- Zone Name
    ,                        !- Space Name
    Adiabatic,               !- Outside Boundary Condition
    ,                        !- Outside Boundary Condition Object
    NoSun,                   !- Sun Exposure
    NoWind,                  !- Wind Exposure
    ,                        !- View Factor to Ground
    ,                        !- Number of Vertices
    1,1,1,  !- X,Y,Z ==> Vertex 1 {m}
    1,1,0,  !- X,Y,Z ==> Vertex 2 {m}
    0,1,0,  !- X,Y,Z ==> Vertex 3 {m}
    0,1,1;  !- X,Y,Z ==> Vertex 4 {m}

  SurfaceProperty:ConvectionCoefficients,
    Surface 3,               !- Surface Name
    Inside,                  !- Convection Coefficient 1 Location
    Value,                   !- Convection Coefficient 1 Type
    30;                      !- Convection Coefficient 1 {W/m2-K}

  BuildingSurface:Detailed,
    Surface 4,               !- Name
    Wall,                    !- Surface Type
    AdiabaticConst,          !- Construction Name
    central ac and furnace airloop ret air zone,  !- Zone Name
    ,                        !- Space Name
    Adiabatic,               !- Outside Boundary Condition
    ,                        !- Outside Boundary Condition Object
    NoSun,                   !- Sun Exposure
    NoWind,                  !- Wind Exposure
    ,                        !- View Factor to Ground
    ,                        !- Number of Vertices
    1,0,1,  !- X,Y,Z ==> Vertex 1 {m}
    1,0,0,  !- X,Y,Z ==> Vertex 2 {m}
    1,1,0,  !- X,Y,Z ==> Vertex 3 {m}
    1,1,1;  !- X,Y,Z ==> Vertex 4 {m}

  SurfaceProperty:ConvectionCoefficients,
    Surface 4,               !- Surface Name
    Inside,                  !- Convection Coefficient 1 Location
    Value,                   !- Convection Coefficient 1 Type
    30;                      !- Convection Coefficient 1 {W/m2-K}

  BuildingSurface:Detailed,
    Surface 5,               !- Name
    Wall,                    !- Surface Type
    AdiabaticConst,          !- Construction Name
    central ac and furnace airloop ret air zone,  !- Zone Name
    ,                        !- Space Name
    Adiabatic,               !- Outside Boundary Condition
    ,                        !- Outside Boundary Condition Object
    NoSun,                   !- Sun Exposure
    NoWind,                  !- Wind Exposure
    ,                        !- View Factor to Ground
    ,                        !- Number of Vertices
    0,0,1,  !- X,Y,Z ==> Vertex 1 {m}
    0,0,0,  !- X,Y,Z ==> Vertex 2 {m}
    1,0,0,  !- X,Y,Z ==> Vertex 3 {m}
    1,0,1;  !- X,Y,Z ==> Vertex 4 {m}

  SurfaceProperty:ConvectionCoefficients,
    Surface 5,               !- Surface Name
    Inside,                  !- Convection Coefficient 1 Location
    Value,                   !- Convection Coefficient 1 Type
    30;                      !- Convection Coefficient 1 {W/m2-K}

  BuildingSurface:Detailed,
    Surface 6,               !- Name
    Ceiling,                 !- Surface Type
    AdiabaticConst,          !- Construction Name
    central ac and furnace airloop ret air zone,  !- Zone Name
    ,                        !- Space Name
    Adiabatic,               !- Outside Boundary Condition
    ,                        !- Outside Boundary Condition Object
    NoSun,                   !- Sun Exposure
    NoWind,                  !- Wind Exposure
    ,                        !- View Factor to Ground
    ,                        !- Number of Vertices
    1,0,1,  !- X,Y,Z ==> Vertex 1 {m}
    1,1,1,  !- X,Y,Z ==> Vertex 2 {m}
    0,1,1,  !- X,Y,Z ==> Vertex 3 {m}
    0,0,1;  !- X,Y,Z ==> Vertex 4 {m}

  SurfaceProperty:ConvectionCoefficients,
    Surface 6,               !- Surface Name
    Inside,                  !- Convection Coefficient 1 Location
    Value,                   !- Convection Coefficient 1 Type
    30;                      !- Convection Coefficient 1 {W/m2-K}

  OtherEquipment,
    central_ac_and_furnace_airloop_0_RetCondToRP equip,  !- Name
    None,                    !- Fuel Type
    central ac and furnace airloop ret air zone,  !- Zone or ZoneList or Space or SpaceList Name
    Always On Discrete,      !- Schedule Name
    EquipmentLevel,          !- Design Level Calculation Method
    0,                       !- Design Level {W}
    ,                        !- Power per Zone Floor Area {W/m2}
    ,                        !- Power per Person {W/person}
    0,                       !- Fraction Latent
    0,                       !- Fraction Radiant
    0.83,                    !- Fraction Lost
    ,                        !- Carbon Dioxide Generation Rate {m3/s-W}
    General;                 !- End-Use Subcategory

  OtherEquipment,
    central_ac_and_furnace_airloop_0_RetLatLkToRP equip,  !- Name
    None,                    !- Fuel Type
    central ac and furnace airloop ret air zone,  !- Zone or ZoneList or Space or SpaceList Name
    Always On Discrete,      !- Schedule Name
    EquipmentLevel,          !- Design Level Calculation Method
    0,                       !- Design Level {W}
    ,                        !- Power per Zone Floor Area {W/m2}
    ,                        !- Power per Person {W/person}
    0.17,                    !- Fraction Latent
    0,                       !- Fraction Radiant
    0.83,                    !- Fraction Lost
    ,                        !- Carbon Dioxide Generation Rate {m3/s-W}
    General;                 !- End-Use Subcategory

  OtherEquipment,
    central_ac_and_furnace_airloop_0_RetSensLkToRP equip,  !- Name
    None,                    !- Fuel Type
    central ac and furnace airloop ret air zone,  !- Zone or ZoneList or Space or SpaceList Name
    Always On Discrete,      !- Schedule Name
    EquipmentLevel,          !- Design Level Calculation Method
    0,                       !- Design Level {W}
    ,                        !- Power per Zone Floor Area {W/m2}
    ,                        !- Power per Person {W/person}
    0,                       !- Fraction Latent
    0,                       !- Fraction Radiant
    0.83,                    !- Fraction Lost
    ,                        !- Carbon Dioxide Generation Rate {m3/s-W}
    General;                 !- End-Use Subcategory

  Zone,
    living space,            !- Name
    0,                       !- Direction of Relative North {deg}
    0,                       !- X Origin {m}
    0,                       !- Y Origin {m}
    0,                       !- Z Origin {m}
    ,                        !- Type
    1,                       !- Multiplier
    ,                        !- Ceiling Height {m}
    305.8219431936,          !- Volume {m3}
    ,                        !- Floor Area {m2}
    ,                        !- Zone Inside Convection Algorithm
    ,                        !- Zone Outside Convection Algorithm
    Yes;                     !- Part of Total Floor Area

  BuildingSurface:Detailed,
    FloorBelowAttic,         !- Name
    Ceiling,                 !- Surface Type
    FloorBelowAttic construction,  !- Construction Name
    living space,            !- Zone Name
    ,                        !- Space Name
    Surface,                 !- Outside Boundary Condition
    Surface 1 Reversed,      !- Outside Boundary Condition Object
    NoSun,                   !- Sun Exposure
    NoWind,                  !- Wind Exposure
    ,                        !- View Factor to Ground
    ,                        !- Number of Vertices
    5.59953355200234,-5.59953355200235,2.4384,  !- X,Y,Z ==> Vertex 1 {m}
    5.59953355200234,5.59953355200235,2.4384,  !- X,Y,Z ==> Vertex 2 {m}
    -5.59953355200234,5.59953355200235,2.4384,  !- X,Y,Z ==> Vertex 3 {m}
    -5.59953355200234,-5.59953355200235,2.4384;  !- X,Y,Z ==> Vertex 4 {m}

  BuildingSurface:Detailed,
    Slab,                    !- Name
    Floor,                   !- Surface Type
    Slab construction,       !- Construction Name
    living space,            !- Zone Name
    ,                        !- Space Name
    Foundation,              !- Outside Boundary Condition
    Foundation Kiva 1,       !- Outside Boundary Condition Object
    NoSun,                   !- Sun Exposure
    NoWind,                  !- Wind Exposure
    ,                        !- View Factor to Ground
    ,                        !- Number of Vertices
    -6.858,-4.572,0,  !- X,Y,Z ==> Vertex 1 {m}
    -6.858,4.572,0,  !- X,Y,Z ==> Vertex 2 {m}
    6.858,4.572,0,  !- X,Y,Z ==> Vertex 3 {m}
    6.858,-4.572,0;  !- X,Y,Z ==> Vertex 4 {m}

  SurfaceProperty:ExposedFoundationPerimeter,
    Slab,                    !- Surface Name
    TotalExposedPerimeter,   !- Exposed Perimeter Calculation Method
    45.72,                   !- Total Exposed Perimeter {m}
    ;                        !- Exposed Perimeter Fraction {dimensionless}

  BuildingSurface:Detailed,
    surface DoorNorth,       !- Name
    Wall,                    !- Surface Type
    AdiabaticWallConstruction 1,  !- Construction Name
    living space,            !- Zone Name
    ,                        !- Space Name
    Outdoors,                !- Outside Boundary Condition
    ,                        !- Outside Boundary Condition Object
    SunExposed,              !- Sun Exposure
    WindExposed,             !- Wind Exposure
    ,                        !- View Factor to Ground
    ,                        !- Number of Vertices
    8.11351039836156,13.8324615068116,0,  !- X,Y,Z ==> Vertex 1 {m}
    8.11351039836156,13.8324615068116,2.034016,  !- X,Y,Z ==> Vertex 2 {m}
    9.94339645533308,13.8324615068116,2.034016,  !- X,Y,Z ==> Vertex 3 {m}
    9.94339645533308,13.8324615068116,0;  !- X,Y,Z ==> Vertex 4 {m}

  FenestrationSurface:Detailed,
    DoorNorth,               !- Name
    Door,                    !- Surface Type
    Door,                    !- Construction Name
    surface DoorNorth,       !- Building Surface Name
    ,                        !- Outside Boundary Condition Object
    ,                        !- View Factor to Ground
    ,                        !- Frame and Divider Name
    ,                        !- Multiplier
    ,                        !- Number of Vertices
    8.11451039836156,13.8324615068116,0,  !- X,Y,Z ==> Vertex 1 {m}
    8.11451039836156,13.8324615068116,2.033016,  !- X,Y,Z ==> Vertex 2 {m}
    9.94239645533308,13.8324615068116,2.033016,  !- X,Y,Z ==> Vertex 3 {m}
    9.94239645533308,13.8324615068116,0;  !- X,Y,Z ==> Vertex 4 {m}

  BuildingSurface:Detailed,
    surface DoorSouth,       !- Name
    Wall,                    !- Surface Type
    AdiabaticWallConstruction 1,  !- Construction Name
    living space,            !- Zone Name
    ,                        !- Space Name
    Outdoors,                !- Outside Boundary Condition
    ,                        !- Outside Boundary Condition Object
    SunExposed,              !- Sun Exposure
    WindExposed,             !- Wind Exposure
    ,                        !- View Factor to Ground
    ,                        !- Number of Vertices
    -8.11351002905906,-13.8324617234281,0,  !- X,Y,Z ==> Vertex 1 {m}
    -8.11351002905906,-13.8324617234281,2.034016,  !- X,Y,Z ==> Vertex 2 {m}
    -9.94339608603057,-13.8324617722829,2.034016,  !- X,Y,Z ==> Vertex 3 {m}
    -9.94339608603057,-13.8324617722829,0;  !- X,Y,Z ==> Vertex 4 {m}

  FenestrationSurface:Detailed,
    DoorSouth,               !- Name
    Door,                    !- Surface Type
    Door 1,                  !- Construction Name
    surface DoorSouth,       !- Building Surface Name
    ,                        !- Outside Boundary Condition Object
    ,                        !- View Factor to Ground
    ,                        !- Frame and Divider Name
    ,                        !- Multiplier
    ,                        !- Number of Vertices
    -8.11451002905906,-13.8324617234548,0,  !- X,Y,Z ==> Vertex 1 {m}
    -8.11451002905906,-13.8324617234548,2.033016,  !- X,Y,Z ==> Vertex 2 {m}
    -9.94239608603057,-13.8324617722562,2.033016,  !- X,Y,Z ==> Vertex 3 {m}
    -9.94239608603057,-13.8324617722562,0;  !- X,Y,Z ==> Vertex 4 {m}

  BuildingSurface:Detailed,
    surface WindowEast,      !- Name
    Wall,                    !- Surface Type
    AdiabaticWallConstruction,  !- Construction Name
    living space,            !- Zone Name
    ,                        !- Space Name
    Outdoors,                !- Outside Boundary Condition
    ,                        !- Outside Boundary Condition Object
    SunExposed,              !- Sun Exposure
    WindExposed,             !- Wind Exposure
    ,                        !- View Factor to Ground
    ,                        !- Number of Vertices
    13.8324615418629,-4.45499627068183,0,  !- X,Y,Z ==> Vertex 1 {m}
    13.8324615418629,-4.45499627068183,1.2202,  !- X,Y,Z ==> Vertex 2 {m}
    13.8324616151282,-9.94339627068183,1.2202,  !- X,Y,Z ==> Vertex 3 {m}
    13.8324616151282,-9.94339627068183,0;  !- X,Y,Z ==> Vertex 4 {m}

  FenestrationSurface:Detailed,
    WindowEast,              !- Name
    Window,                  !- Surface Type
    WindowConstruction 2,    !- Construction Name
    surface WindowEast,      !- Building Surface Name
    ,                        !- Outside Boundary Condition Object
    ,                        !- View Factor to Ground
    ,                        !- Frame and Divider Name
    ,                        !- Multiplier
    ,                        !- Number of Vertices
    13.8324615418763,-4.45599627068183,0.001,  !- X,Y,Z ==> Vertex 1 {m}
    13.8324615418763,-4.45599627068183,1.2202,  !- X,Y,Z ==> Vertex 2 {m}
    13.8324616151149,-9.94239627068183,1.2202,  !- X,Y,Z ==> Vertex 3 {m}
    13.8324616151149,-9.94239627068183,0.001;  !- X,Y,Z ==> Vertex 4 {m}

  BuildingSurface:Detailed,
    surface WindowNorth,     !- Name
    Wall,                    !- Surface Type
    AdiabaticWallConstruction,  !- Construction Name
    living space,            !- Zone Name
    ,                        !- Space Name
    Outdoors,                !- Outside Boundary Condition
    ,                        !- Outside Boundary Condition Object
    SunExposed,              !- Sun Exposure
    WindExposed,             !- Wind Exposure
    ,                        !- View Factor to Ground
    ,                        !- Number of Vertices
    -1.04512000163844,13.8324614272806,0,  !- X,Y,Z ==> Vertex 1 {m}
    -1.04512000163844,13.8324614272806,1.2202,  !- X,Y,Z ==> Vertex 2 {m}
    7.18647999836156,13.8324614272806,1.2202,  !- X,Y,Z ==> Vertex 3 {m}
    7.18647999836156,13.8324614272806,0;  !- X,Y,Z ==> Vertex 4 {m}

  FenestrationSurface:Detailed,
    WindowNorth,             !- Name
    Window,                  !- Surface Type
    WindowConstruction,      !- Construction Name
    surface WindowNorth,     !- Building Surface Name
    ,                        !- Outside Boundary Condition Object
    ,                        !- View Factor to Ground
    ,                        !- Frame and Divider Name
    ,                        !- Multiplier
    ,                        !- Number of Vertices
    -1.04412000163844,13.8324614272806,0.001,  !- X,Y,Z ==> Vertex 1 {m}
    -1.04412000163844,13.8324614272806,1.2202,  !- X,Y,Z ==> Vertex 2 {m}
    7.18547999836156,13.8324614272806,1.2202,  !- X,Y,Z ==> Vertex 3 {m}
    7.18547999836156,13.8324614272806,0.001;  !- X,Y,Z ==> Vertex 4 {m}

  BuildingSurface:Detailed,
    surface WindowSouth,     !- Name
    Wall,                    !- Surface Type
    AdiabaticWallConstruction,  !- Construction Name
    living space,            !- Zone Name
    ,                        !- Space Name
    Outdoors,                !- Outside Boundary Condition
    ,                        !- Outside Boundary Condition Object
    SunExposed,              !- Sun Exposure
    WindExposed,             !- Wind Exposure
    ,                        !- View Factor to Ground
    ,                        !- Number of Vertices
    1.04512037094094,-13.8324613993777,0,  !- X,Y,Z ==> Vertex 1 {m}
    1.04512037094094,-13.8324613993777,1.2202,  !- X,Y,Z ==> Vertex 2 {m}
    -7.18647962905906,-13.832461619147,1.2202,  !- X,Y,Z ==> Vertex 3 {m}
    -7.18647962905906,-13.832461619147,0;  !- X,Y,Z ==> Vertex 4 {m}

  FenestrationSurface:Detailed,
    WindowSouth,             !- Name
    Window,                  !- Surface Type
    WindowConstruction 1,    !- Construction Name
    surface WindowSouth,     !- Building Surface Name
    ,                        !- Outside Boundary Condition Object
    ,                        !- View Factor to Ground
    ,                        !- Frame and Divider Name
    ,                        !- Multiplier
    ,                        !- Number of Vertices
    1.04412037094094,-13.8324613994044,0.001,  !- X,Y,Z ==> Vertex 1 {m}
    1.04412037094094,-13.8324613994044,1.2202,  !- X,Y,Z ==> Vertex 2 {m}
    -7.18547962905906,-13.8324616191203,1.2202,  !- X,Y,Z ==> Vertex 3 {m}
    -7.18547962905906,-13.8324616191203,0.001;  !- X,Y,Z ==> Vertex 4 {m}

  BuildingSurface:Detailed,
    surface WindowWest,      !- Name
    Wall,                    !- Surface Type
    AdiabaticWallConstruction,  !- Construction Name
    living space,            !- Zone Name
    ,                        !- Space Name
    Outdoors,                !- Outside Boundary Condition
    ,                        !- Outside Boundary Condition Object
    SunExposed,              !- Sun Exposure
    WindExposed,             !- Wind Exposure
    ,                        !- View Factor to Ground