!-Generator IDFEditor 1.34
!-Option OriginalOrderTop UseSpecialFormat
!-NOTE: All comments with '!-' are ignored by the IDFEditor and are generated automatically.
!-      Use '!' comments if they need to be retained when using the IDFEditor.
! CooltowerSimpleTest.idf
!
! Basic file description: Example of how to simulate a cooltower that is designed to capture the wind
!  at the top of a tower and cool the outside air using water evaporation before delivering it to a space.
!   A cooltower typically consists of a water spray or an evaporative pad, a shaft, and a water tank or reservoir.
! A water pump is typically the only component consumed power for this system.
! Implementation of this system allows EnergyPlus to design and evaluate cooltowers.
!
! Highlights: This example is intented to see the effect of different types of cooltowers
!           on the zone temperatures and humidity ratio.
!
! Simulation Location/Run: Tucson Intl AP,AZ,USA,TMY3,
!             2 design days(ASHRAE HoF 2005 design days: summer and winter design day)
!
! Location:                Tucson, Arizona
!
! Design Days:             Tucson Intl AP Ann Clg .4% Condns DB=>MWB, MaxDB=40.7
!                          Intl AP Ann Htg 99.6% Condns DB, MaxDB=  -0.2
!
! Run Period (Weather File): Winter 1/21, Summer 7/21, Tucson Intl AP,AZ,USA,TMY3
!
! Run Control:             Design Days Simulation
!
! Building: Three zones/buildings which are all identical.  To avoid any shading between the zones
!           each is separated by a distance of 100m (in the x-direction).  The shape of each zone
!           is basically rectangular with the long side parallel to the east-west axis.  The south
!           wall is articulated, just for kicks.  Windows are present on all south walls and the
!           north wall.  The zones are "uncontrolled" in that the method of cooling the spaces
!           is cooltower statements.
!
! Floor Area:    0.44 m2(4.74ft2)
!
! Number of Stories: 1
!
!
! Zone Description Details:
!   Internal gains description:     People, lights, and equipment at reasonable levels for each zone.
!                                   The levels of these parameters is the same for all zones.
!   Interzone Surfaces:             None
!   Internal Mass:                  None
!   People:                         4 per zone
!   Light:                          Design level of 950 per zone
!   Electric Equipment:             Design level of 480 W
!   Windows:                        All south walls and north walls.
!   Detached Shading:               None
!   Daylight:                       None
!   Natural Ventilation:            None
!   Compact Schedules:              Yes
!   Solar Distribution:             FullExterior, Aniso, Simple Interior and Exterior Convection
!
!
! HVAC:                             None/Uncontrolled
!   Ideal Loads:                    None
!   Zonal Equipment:                None
!   Central Air Handling Equipment: None
!   System Equipment Autosize:      None
!   Purchased Cooling:              None
!   Purchased Heating:              None
!   Coils:                          None
!   Pumps:                          None
!   Boilers:                        None
!   Chillers:                       None
!
! Results:
!   Standard Reports:               None
!   Timestep or Hourly Variables:   Hourly
!   Time bins Report:               None
!   HTML Report:                    None
!   Environmental Emissions:        None
!   Utility Tariffs:                None

  Version,24.1;

  Building,
    BUILDING #1,             !- Name
    0,                       !- North Axis {deg}
    Suburbs,                 !- Terrain
    3.9999999E-02,           !- Loads Convergence Tolerance Value {W}
    0.4000000,               !- Temperature Convergence Tolerance Value {deltaC}
    FullExterior,            !- Solar Distribution
    25,                      !- Maximum Number of Warmup Days
    6;                       !- Minimum Number of Warmup Days

  Timestep,4;

  SurfaceConvectionAlgorithm:Inside,Simple;

  SurfaceConvectionAlgorithm:Outside,SimpleCombined;

  SimulationControl,
    No,                      !- Do Zone Sizing Calculation
    No,                      !- Do System Sizing Calculation
    No,                      !- Do Plant Sizing Calculation
    Yes,                     !- Run Simulation for Sizing Periods
    No,                      !- Run Simulation for Weather File Run Periods
    No,                      !- Do HVAC Sizing Simulation for Sizing Periods
    1;                       !- Maximum Number of HVAC Sizing Simulation Passes

  RunPeriod,
    Run Period 1,            !- Name
    1,                       !- Begin Month
    1,                       !- Begin Day of Month
    ,                        !- Begin Year
    12,                      !- End Month
    31,                      !- End Day of Month
    ,                        !- End Year
    Tuesday,                 !- Day of Week for Start Day
    Yes,                     !- Use Weather File Holidays and Special Days
    Yes,                     !- Use Weather File Daylight Saving Period
    No,                      !- Apply Weekend Holiday Rule
    Yes,                     !- Use Weather File Rain Indicators
    Yes;                     !- Use Weather File Snow Indicators

  Site:Location,
    Tucson Intl AP_AZ_USA Design_Conditions,  !- Name
    32.13,                   !- Latitude {deg}
    -110.95,                 !- Longitude {deg}
    -7,                      !- Time Zone {hr}
    777.00;                  !- Elevation {m}

! Tucson Intl AP Ann Clg .4% Condns DB=>MWB, MaxDB=40.7

  SizingPeriod:DesignDay,
    Tucson Intl AP Ann Clg .4% Condns DB=>MWB,  !- Name
    7,                       !- Month
    21,                      !- Day of Month
    SummerDesignDay,         !- Day Type
    40.7,                    !- Maximum Dry-Bulb Temperature {C}
    13.3,                    !- Daily Dry-Bulb Temperature Range {deltaC}
    ,                        !- Dry-Bulb Temperature Range Modifier Type
    ,                        !- Dry-Bulb Temperature Range Modifier Day Schedule Name
    Wetbulb,                 !- Humidity Condition Type
    18.9,                    !- Wetbulb or DewPoint at Maximum Dry-Bulb {C}
    ,                        !- Humidity Condition Day Schedule Name
    ,                        !- Humidity Ratio at Maximum Dry-Bulb {kgWater/kgDryAir}
    ,                        !- Enthalpy at Maximum Dry-Bulb {J/kg}
    ,                        !- Daily Wet-Bulb Temperature Range {deltaC}
    92332.,                  !- Barometric Pressure {Pa}
    4.9,                     !- Wind Speed {m/s}
    330.00,                  !- Wind Direction {deg}
    No,                      !- Rain Indicator
    No,                      !- Snow Indicator
    No,                      !- Daylight Saving Time Indicator
    ASHRAEClearSky,          !- Solar Model Indicator
    ,                        !- Beam Solar Day Schedule Name
    ,                        !- Diffuse Solar Day Schedule Name
    ,                        !- ASHRAE Clear Sky Optical Depth for Beam Irradiance (taub) {dimensionless}
    ,                        !- ASHRAE Clear Sky Optical Depth for Diffuse Irradiance (taud) {dimensionless}
    1.00;                    !- Sky Clearness

! Tucson Intl AP Ann Htg 99.6% Condns DB, MaxDB=  -0.2

  SizingPeriod:DesignDay,
    Tucson Intl AP Ann Htg 99.6% Condns DB,  !- Name
    1,                       !- Month
    21,                      !- Day of Month
    WinterDesignDay,         !- Day Type
    -0.2,                    !- Maximum Dry-Bulb Temperature {C}
    0.00,                    !- Daily Dry-Bulb Temperature Range {deltaC}
    ,                        !- Dry-Bulb Temperature Range Modifier Type
    ,                        !- Dry-Bulb Temperature Range Modifier Day Schedule Name
    Wetbulb,                 !- Humidity Condition Type
    -0.2,                    !- Wetbulb or DewPoint at Maximum Dry-Bulb {C}
    ,                        !- Humidity Condition Day Schedule Name
    ,                        !- Humidity Ratio at Maximum Dry-Bulb {kgWater/kgDryAir}
    ,                        !- Enthalpy at Maximum Dry-Bulb {J/kg}
    ,                        !- Daily Wet-Bulb Temperature Range {deltaC}
    92332.,                  !- Barometric Pressure {Pa}
    2.6,                     !- Wind Speed {m/s}
    140.00,                  !- Wind Direction {deg}
    No,                      !- Rain Indicator
    No,                      !- Snow Indicator
    No,                      !- Daylight Saving Time Indicator
    ASHRAEClearSky,          !- Solar Model Indicator
    ,                        !- Beam Solar Day Schedule Name
    ,                        !- Diffuse Solar Day Schedule Name
    ,                        !- ASHRAE Clear Sky Optical Depth for Beam Irradiance (taub) {dimensionless}
    ,                        !- ASHRAE Clear Sky Optical Depth for Diffuse Irradiance (taud) {dimensionless}
    0.00;                    !- Sky Clearness

  Site:GroundTemperature:BuildingSurface,19,19,19,20,22,23,24,23,22,21,20,19;

  Material,
    A2 - 4 IN DENSE FACE BRICK,  !- Name
    Rough,                   !- Roughness
    0.1014984,               !- Thickness {m}
    1.245296,                !- Conductivity {W/m-K}
    2082.400,                !- Density {kg/m3}
    920.4800,                !- Specific Heat {J/kg-K}
    0.9000000,               !- Thermal Absorptance
    0.9300000,               !- Solar Absorptance
    0.9300000;               !- Visible Absorptance

  Material,
    B3 - 2 IN INSULATION,    !- Name
    VeryRough,               !- Roughness
    5.0901599E-02,           !- Thickness {m}
    4.3239430E-02,           !- Conductivity {W/m-K}
    32.03693,                !- Density {kg/m3}
    836.8000,                !- Specific Heat {J/kg-K}
    0.9000000,               !- Thermal Absorptance
    0.5000000,               !- Solar Absorptance
    0.5000000;               !- Visible Absorptance

  Material,
    C2 - 4 IN LW CONCRETE BLOCK,  !- Name
    MediumRough,             !- Roughness
    0.1014984,               !- Thickness {m}
    0.3805070,               !- Conductivity {W/m-K}
    608.7016,                !- Density {kg/m3}
    836.8000,                !- Specific Heat {J/kg-K}
    0.9000000,               !- Thermal Absorptance
    0.6500000,               !- Solar Absorptance
    0.6500000;               !- Visible Absorptance

  Material,
    E1 - 3 / 4 IN PLASTER OR GYP BOARD,  !- Name
    Smooth,                  !- Roughness
    1.9050000E-02,           !- Thickness {m}
    0.7264224,               !- Conductivity {W/m-K}
    1601.846,                !- Density {kg/m3}
    836.8000,                !- Specific Heat {J/kg-K}
    0.9000000,               !- Thermal Absorptance
    0.9200000,               !- Solar Absorptance
    0.9200000;               !- Visible Absorptance

  Material,
    DIRT 12 IN,              !- Name
    Rough,                   !- Roughness
    0.3048000,               !- Thickness {m}
    0.1729577,               !- Conductivity {W/m-K}
    1041.200,                !- Density {kg/m3}
    836.8000,                !- Specific Heat {J/kg-K}
    0.9000000,               !- Thermal Absorptance
    0.7000000,               !- Solar Absorptance
    0.7000000;               !- Visible Absorptance

  Material,
    CONCRETE - SAND AND GRAVEL 4 IN,  !- Name
    MediumRough,             !- Roughness
    0.1014984,               !- Thickness {m}
    1.729577,                !- Conductivity {W/m-K}
    2242.585,                !- Density {kg/m3}
    836.8000,                !- Specific Heat {J/kg-K}
    0.9000000,               !- Thermal Absorptance
    0.6000000,               !- Solar Absorptance
    0.6000000;               !- Visible Absorptance

  Material,
    E2 - 1 / 2 IN SLAG OR STONE,  !- Name
    Rough,                   !- Roughness
    1.2710161E-02,           !- Thickness {m}
    1.435549,                !- Conductivity {W/m-K}
    881.0155,                !- Density {kg/m3}
    1673.600,                !- Specific Heat {J/kg-K}
    0.9000000,               !- Thermal Absorptance
    0.5500000,               !- Solar Absorptance
    0.5500000;               !- Visible Absorptance

  Material,
    E3 - 3 / 8 IN FELT AND MEMBRANE,  !- Name
    Rough,                   !- Roughness
    9.5402403E-03,           !- Thickness {m}
    0.1902535,               !- Conductivity {W/m-K}
    1121.292,                !- Density {kg/m3}
    1673.600,                !- Specific Heat {J/kg-K}
    0.9000000,               !- Thermal Absorptance
    0.7500000,               !- Solar Absorptance
    0.7500000;               !- Visible Absorptance

  Material,
    B6 - 2 IN DENSE INSULATION,  !- Name
    VeryRough,               !- Roughness
    5.0901599E-02,           !- Thickness {m}
    4.3239430E-02,           !- Conductivity {W/m-K}
    91.30524,                !- Density {kg/m3}
    836.8000,                !- Specific Heat {J/kg-K}
    0.9000000,               !- Thermal Absorptance
    0.5000000,               !- Solar Absorptance
    0.5000000;               !- Visible Absorptance

  Material,
    C12 - 2 IN HW CONCRETE,  !- Name
    MediumRough,             !- Roughness
    5.0901599E-02,           !- Thickness {m}
    1.729577,                !- Conductivity {W/m-K}
    2242.585,                !- Density {kg/m3}
    836.8000,                !- Specific Heat {J/kg-K}
    0.9000000,               !- Thermal Absorptance
    0.6500000,               !- Solar Absorptance
    0.6500000;               !- Visible Absorptance

  WindowMaterial:Glazing,
    GLASS - CLEAR PLATE 1 / 4 IN,  !- Name
    SpectralAverage,         !- Optical Data Type
    ,                        !- Window Glass Spectral Data Set Name
    6.0000001E-03,           !- Thickness {m}
    0.7750000,               !- Solar Transmittance at Normal Incidence
    7.1000002E-02,           !- Front Side Solar Reflectance at Normal Incidence
    7.1000002E-02,           !- Back Side Solar Reflectance at Normal Incidence
    0.8810000,               !- Visible Transmittance at Normal Incidence
    7.9999998E-02,           !- Front Side Visible Reflectance at Normal Incidence
    7.9999998E-02,           !- Back Side Visible Reflectance at Normal Incidence
    0,                       !- Infrared Transmittance at Normal Incidence
    0.8400000,               !- Front Side Infrared Hemispherical Emissivity
    0.8400000,               !- Back Side Infrared Hemispherical Emissivity
    0.9000000;               !- Conductivity {W/m-K}

  Construction,
    EXTERIOR,                !- Name
    A2 - 4 IN DENSE FACE BRICK,  !- Outside Layer
    B3 - 2 IN INSULATION,    !- Layer 2
    C2 - 4 IN LW CONCRETE BLOCK,  !- Layer 3
    E1 - 3 / 4 IN PLASTER OR GYP BOARD;  !- Layer 4

  Construction,
    SINGLE PANE HW WINDOW,   !- Name
    GLASS - CLEAR PLATE 1 / 4 IN;  !- Outside Layer

  Construction,
    SLAB FLOOR,              !- Name
    DIRT 12 IN,              !- Outside Layer
    CONCRETE - SAND AND GRAVEL 4 IN;  !- Layer 2

  Construction,
    ROOF31,                  !- Name
    E2 - 1 / 2 IN SLAG OR STONE,  !- Outside Layer
    E3 - 3 / 8 IN FELT AND MEMBRANE,  !- Layer 2
    B6 - 2 IN DENSE INSULATION,  !- Layer 3
    C12 - 2 IN HW CONCRETE;  !- Layer 4

  Zone,
    ZONE 1,                  !- Name
    0,                       !- Direction of Relative North {deg}
    1.980000,                !- X Origin {m}
    4.580000,                !- Y Origin {m}
    0,                       !- Z Origin {m}
    1,                       !- Type
    1,                       !- Multiplier
    autocalculate,           !- Ceiling Height {m}
    autocalculate;           !- Volume {m3}

  Zone,
    ZONE 2,                  !- Name
    0,                       !- Direction of Relative North {deg}
    101.980000,              !- X Origin {m}
    4.580000,                !- Y Origin {m}
    0,                       !- Z Origin {m}
    1,                       !- Type
    1,                       !- Multiplier
    autocalculate,           !- Ceiling Height {m}
    autocalculate;           !- Volume {m3}

  Zone,
    ZONE 3,                  !- Name
    0,                       !- Direction of Relative North {deg}
    201.980000,              !- X Origin {m}
    4.580000,                !- Y Origin {m}
    0,                       !- Z Origin {m}
    1,                       !- Type
    1,                       !- Multiplier
    autocalculate,           !- Ceiling Height {m}
    autocalculate;           !- Volume {m3}

  GlobalGeometryRules,
    UpperLeftCorner,         !- Starting Vertex Position
    CounterClockWise,        !- Vertex Entry Direction
    World,                   !- Coordinate System
    ,                        !- Daylighting Reference Point Coordinate System
    World;                   !- Rectangular Surface Coordinate System

  BuildingSurface:Detailed,
    Zn001:Wall001,           !- Name
    Wall,                    !- Surface Type
    EXTERIOR,                !- Construction Name
    ZONE 1,                  !- Zone Name
    ,                        !- Space Name
    Outdoors,                !- Outside Boundary Condition
    ,                        !- Outside Boundary Condition Object
    SunExposed,              !- Sun Exposure
    WindExposed,             !- Wind Exposure
    0.5000000,               !- View Factor to Ground
    4,                       !- Number of Vertices
    1.980000,5.980000,10.00000,  !- X,Y,Z ==> Vertex 1 {m}
    1.980000,5.980000,0,  !- X,Y,Z ==> Vertex 2 {m}
    7.280000,5.980000,0,  !- X,Y,Z ==> Vertex 3 {m}
    7.280000,5.980000,10.00000;  !- X,Y,Z ==> Vertex 4 {m}

  BuildingSurface:Detailed,
    Zn001:Wall002,           !- Name
    Wall,                    !- Surface Type
    EXTERIOR,                !- Construction Name
    ZONE 1,                  !- Zone Name
    ,                        !- Space Name
    Outdoors,                !- Outside Boundary Condition
    ,                        !- Outside Boundary Condition Object
    SunExposed,              !- Sun Exposure
    WindExposed,             !- Wind Exposure
    0.5000000,               !- View Factor to Ground
    4,                       !- Number of Vertices
    7.280000,5.980000,10.00000,  !- X,Y,Z ==> Vertex 1 {m}
    7.280000,5.980000,0,  !- X,Y,Z ==> Vertex 2 {m}
    7.280000,8.980000,0,  !- X,Y,Z ==> Vertex 3 {m}
    7.280000,8.980000,10.00000;  !- X,Y,Z ==> Vertex 4 {m}

  BuildingSurface:Detailed,
    Zn001:Wall003,           !- Name
    Wall,                    !- Surface Type
    EXTERIOR,                !- Construction Name
    ZONE 1,                  !- Zone Name
    ,                        !- Space Name
    Outdoors,                !- Outside Boundary Condition
    ,                        !- Outside Boundary Condition Object
    SunExposed,              !- Sun Exposure
    WindExposed,             !- Wind Exposure
    0.5000000,               !- View Factor to Ground
    4,                       !- Number of Vertices
    7.280000,8.980000,10.00000,  !- X,Y,Z ==> Vertex 1 {m}
    7.280000,8.980000,0,  !- X,Y,Z ==> Vertex 2 {m}
    12.88000,8.980000,0,  !- X,Y,Z ==> Vertex 3 {m}
    12.88000,8.980000,10.00000;  !- X,Y,Z ==> Vertex 4 {m}

  BuildingSurface:Detailed,
    Zn001:Wall004,           !- Name
    Wall,                    !- Surface Type
    EXTERIOR,                !- Construction Name
    ZONE 1,                  !- Zone Name
    ,                        !- Space Name
    Outdoors,                !- Outside Boundary Condition
    ,                        !- Outside Boundary Condition Object
    SunExposed,              !- Sun Exposure
    WindExposed,             !- Wind Exposure
    0.5000000,               !- View Factor to Ground
    4,                       !- Number of Vertices
    12.88000,8.980000,10.00000,  !- X,Y,Z ==> Vertex 1 {m}
    12.88000,8.980000,0,  !- X,Y,Z ==> Vertex 2 {m}
    12.88000,4.580000,0,  !- X,Y,Z ==> Vertex 3 {m}
    12.88000,4.580000,10.00000;  !- X,Y,Z ==> Vertex 4 {m}

  BuildingSurface:Detailed,
    Zn001:Wall005,           !- Name
    Wall,                    !- Surface Type
    EXTERIOR,                !- Construction Name
    ZONE 1,                  !- Zone Name
    ,                        !- Space Name
    Outdoors,                !- Outside Boundary Condition
    ,                        !- Outside Boundary Condition Object
    SunExposed,              !- Sun Exposure
    WindExposed,             !- Wind Exposure
    0.5000000,               !- View Factor to Ground
    4,                       !- Number of Vertices
    12.88000,4.580000,10.00000,  !- X,Y,Z ==> Vertex 1 {m}
    12.88000,4.580000,0,  !- X,Y,Z ==> Vertex 2 {m}
    18.18000,4.580000,0,  !- X,Y,Z ==> Vertex 3 {m}
    18.18000,4.580000,10.00000;  !- X,Y,Z ==> Vertex 4 {m}

  BuildingSurface:Detailed,
    Zn001:Wall006,           !- Name
    Wall,                    !- Surface Type
    EXTERIOR,                !- Construction Name
    ZONE 1,                  !- Zone Name
    ,                        !- Space Name
    Outdoors,                !- Outside Boundary Condition
    ,                        !- Outside Boundary Condition Object
    SunExposed,              !- Sun Exposure
    WindExposed,             !- Wind Exposure
    0.5000000,               !- View Factor to Ground
    4,                       !- Number of Vertices
    18.18000,4.580000,10.00000,  !- X,Y,Z ==> Vertex 1 {m}
    18.18000,4.580000,0,  !- X,Y,Z ==> Vertex 2 {m}
    18.18000,8.080000,0,  !- X,Y,Z ==> Vertex 3 {m}
    18.18000,8.080000,10.00000;  !- X,Y,Z ==> Vertex 4 {m}

  BuildingSurface:Detailed,
    Zn001:Wall007,           !- Name
    Wall,                    !- Surface Type
    EXTERIOR,                !- Construction Name
    ZONE 1,                  !- Zone Name
    ,                        !- Space Name
    Outdoors,                !- Outside Boundary Condition
    ,                        !- Outside Boundary Condition Object
    SunExposed,              !- Sun Exposure
    WindExposed,             !- Wind Exposure
    0.5000000,               !- View Factor to Ground
    4,                       !- Number of Vertices
    18.18000,8.080000,10.00000,  !- X,Y,Z ==> Vertex 1 {m}
    18.18000,8.080000,0,  !- X,Y,Z ==> Vertex 2 {m}
    24.08000,8.080000,0,  !- X,Y,Z ==> Vertex 3 {m}
    24.08000,8.080000,10.00000;  !- X,Y,Z ==> Vertex 4 {m}

  BuildingSurface:Detailed,
    Zn001:Wall008,           !- Name
    Wall,                    !- Surface Type
    EXTERIOR,                !- Construction Name
    ZONE 1,                  !- Zone Name
    ,                        !- Space Name
    Outdoors,                !- Outside Boundary Condition
    ,                        !- Outside Boundary Condition Object
    SunExposed,              !- Sun Exposure
    WindExposed,             !- Wind Exposure
    0.5000000,               !- View Factor to Ground
    4,                       !- Number of Vertices
    24.08000,8.080000,10.00000,  !- X,Y,Z ==> Vertex 1 {m}
    24.08000,8.080000,0,  !- X,Y,Z ==> Vertex 2 {m}
    24.08000,5.080000,0,  !- X,Y,Z ==> Vertex 3 {m}
    24.08000,5.080000,10.00000;  !- X,Y,Z ==> Vertex 4 {m}

  BuildingSurface:Detailed,
    Zn001:Wall009,           !- Name
    Wall,                    !- Surface Type
    EXTERIOR,                !- Construction Name
    ZONE 1,                  !- Zone Name
    ,                        !- Space Name
    Outdoors,                !- Outside Boundary Condition
    ,                        !- Outside Boundary Condition Object
    SunExposed,              !- Sun Exposure
    WindExposed,             !- Wind Exposure
    0.5000000,               !- View Factor to Ground
    4,                       !- Number of Vertices
    24.08000,5.080000,10.00000,  !- X,Y,Z ==> Vertex 1 {m}
    24.08000,5.080000,0,  !- X,Y,Z ==> Vertex 2 {m}
    30.08000,5.080000,0,  !- X,Y,Z ==> Vertex 3 {m}
    30.08000,5.080000,10.00000;  !- X,Y,Z ==> Vertex 4 {m}

  BuildingSurface:Detailed,
    Zn001:Wall010,           !- Name
    Wall,                    !- Surface Type
    EXTERIOR,                !- Construction Name
    ZONE 1,                  !- Zone Name
    ,                        !- Space Name
    Outdoors,                !- Outside Boundary Condition
    ,                        !- Outside Boundary Condition Object
    SunExposed,              !- Sun Exposure
    WindExposed,             !- Wind Exposure
    0.5000000,               !- View Factor to Ground
    4,                       !- Number of Vertices
    30.08000,5.080000,10.00000,  !- X,Y,Z ==> Vertex 1 {m}
    30.08000,5.080000,0,  !- X,Y,Z ==> Vertex 2 {m}
    30.08000,10.28000,0,  !- X,Y,Z ==> Vertex 3 {m}
    30.08000,10.28000,10.00000;  !- X,Y,Z ==> Vertex 4 {m}

  BuildingSurface:Detailed,
    Zn001:Wall011,           !- Name
    Wall,                    !- Surface Type
    EXTERIOR,                !- Construction Name
    ZONE 1,                  !- Zone Name
    ,                        !- Space Name
    Outdoors,                !- Outside Boundary Condition
    ,                        !- Outside Boundary Condition Object
    SunExposed,              !- Sun Exposure
    WindExposed,             !- Wind Exposure
    0.5000000,               !- View Factor to Ground
    4,                       !- Number of Vertices
    30.08000,10.28000,10.00000,  !- X,Y,Z ==> Vertex 1 {m}
    30.08000,10.28000,0,  !- X,Y,Z ==> Vertex 2 {m}
    35.38000,10.28000,0,  !- X,Y,Z ==> Vertex 3 {m}
    35.38000,10.28000,10.00000;  !- X,Y,Z ==> Vertex 4 {m}

  BuildingSurface:Detailed,
    Zn001:Wall012,           !- Name
    Wall,                    !- Surface Type
    EXTERIOR,                !- Construction Name
    ZONE 1,                  !- Zone Name
    ,                        !- Space Name
    Outdoors,                !- Outside Boundary Condition
    ,                        !- Outside Boundary Condition Object
    SunExposed,              !- Sun Exposure
    WindExposed,             !- Wind Exposure
    0.5000000,               !- View Factor to Ground
    4,                       !- Number of Vertices
    35.38000,10.28000,10.00000,  !- X,Y,Z ==> Vertex 1 {m}
    35.38000,10.28000,0,  !- X,Y,Z ==> Vertex 2 {m}
    35.38000,7.480000,0,  !- X,Y,Z ==> Vertex 3 {m}
    35.38000,7.480000,10.00000;  !- X,Y,Z ==> Vertex 4 {m}

  BuildingSurface:Detailed,
    Zn001:Wall013,           !- Name
    Wall,                    !- Surface Type
    EXTERIOR,                !- Construction Name
    ZONE 1,                  !- Zone Name
    ,                        !- Space Name
    Outdoors,                !- Outside Boundary Condition
    ,                        !- Outside Boundary Condition Object
    SunExposed,              !- Sun Exposure
    WindExposed,             !- Wind Exposure
    0.5000000,               !- View Factor to Ground
    4,                       !- Number of Vertices
    35.38000,7.480000,10.00000,  !- X,Y,Z ==> Vertex 1 {m}
    35.38000,7.480000,0,  !- X,Y,Z ==> Vertex 2 {m}
    41.48000,7.480000,0,  !- X,Y,Z ==> Vertex 3 {m}
    41.48000,7.480000,10.00000;  !- X,Y,Z ==> Vertex 4 {m}

  BuildingSurface:Detailed,
    Zn001:Wall014,           !- Name
    Wall,                    !- Surface Type
    EXTERIOR,                !- Construction Name
    ZONE 1,                  !- Zone Name
    ,                        !- Space Name
    Outdoors,                !- Outside Boundary Condition
    ,                        !- Outside Boundary Condition Object
    SunExposed,              !- Sun Exposure
    WindExposed,             !- Wind Exposure
    0.5000000,               !- View Factor to Ground
    4,                       !- Number of Vertices
    41.48000,7.480000,10.00000,  !- X,Y,Z ==> Vertex 1 {m}
    41.48000,7.480000,0,  !- X,Y,Z ==> Vertex 2 {m}
    41.48000,18.38000,0,  !- X,Y,Z ==> Vertex 3 {m}
    41.48000,18.38000,10.00000;  !- X,Y,Z ==> Vertex 4 {m}

  BuildingSurface:Detailed,
    Zn001:Wall015,           !- Name
    Wall,                    !- Surface Type
    EXTERIOR,                !- Construction Name
    ZONE 1,                  !- Zone Name
    ,                        !- Space Name
    Outdoors,                !- Outside Boundary Condition
    ,                        !- Outside Boundary Condition Object
    SunExposed,              !- Sun Exposure
    WindExposed,             !- Wind Exposure
    0.5000000,               !- View Factor to Ground
    4,                       !- Number of Vertices
    41.48000,18.38000,10.00000,  !- X,Y,Z ==> Vertex 1 {m}
    41.48000,18.38000,0,  !- X,Y,Z ==> Vertex 2 {m}
    1.980000,18.38000,0,  !- X,Y,Z ==> Vertex 3 {m}
    1.980000,18.38000,10.00000;  !- X,Y,Z ==> Vertex 4 {m}

  BuildingSurface:Detailed,
    Zn001:Wall016,           !- Name
    Wall,                    !- Surface Type
    EXTERIOR,                !- Construction Name
    ZONE 1,                  !- Zone Name
    ,                        !- Space Name
    Outdoors,                !- Outside Boundary Condition
    ,                        !- Outside Boundary Condition Object
    SunExposed,              !- Sun Exposure
    WindExposed,             !- Wind Exposure
    0.5000000,               !- View Factor to Ground
    4,                       !- Number of Vertices
    1.980000,18.38000,10.00000,  !- X,Y,Z ==> Vertex 1 {m}
    1.980000,18.38000,0,  !- X,Y,Z ==> Vertex 2 {m}
    1.980000,5.980000,0,  !- X,Y,Z ==> Vertex 3 {m}
    1.980000,5.980000,10.00000;  !- X,Y,Z ==> Vertex 4 {m}

! equivalent area:
!    22.98000,4.580000,0.0000000E+00,  !- X,Y,Z ==> Vertex 1
!    1.980000,4.580000,0.0000000E+00,  !- X,Y,Z ==> Vertex 2
!    1.980000,25.58000,0.0000000E+00,  !- X,Y,Z ==> Vertex 3
!    22.98000,25.58000,0.0000000E+00;  !- X,Y,Z ==> Vertex 4

  BuildingSurface:Detailed,
    Zn001:Flr001,            !- Name