  Version,8.8;

  LifeCycleCost:Parameters,
    {4b9df6a2-e182-45c5-a7d8-91cee8c66584},  !- Name
    EndOfYear,               !- Discounting Convention
    ConstantDollar,          !- Inflation Approach
    0.03,                    !- Real Discount Rate
    ,                        !- Nominal Discount Rate
    ,                        !- Inflation
    ,                        !- Base Date Month
    2011,                    !- Base Date Year
    ,                        !- Service Date Month
    2011,                    !- Service Date Year
    25,                      !- Length of Study Period in Years
    ,                        !- Tax rate
    None;                    !- Depreciation Method

  LifeCycleCost:UsePriceEscalation,
    U.S. Avg  Commercial-Electricity,  !- LCC Price Escalation Name
    Electricity,             !- Resource
    2011,                    !- Escalation Start Year
    January,                 !- Escalation Start Month
    0.9838,                  !- Year 1 Escalation
    0.9730,                  !- Year 2 Escalation
    0.9632,                  !- Year 3 Escalation
    0.9611,                  !- Year 4 Escalation
    0.9571,                  !- Year 5 Escalation
    0.9553,                  !- Year 6 Escalation
    0.9539,                  !- Year 7 Escalation
    0.9521,                  !- Year 8 Escalation
    0.9546,                  !- Year 9 Escalation
    0.9550,                  !- Year 10 Escalation
    0.9553,                  !- Year 11 Escalation
    0.9564,                  !- Year 12 Escalation
    0.9575,                  !- Year 13 Escalation
    0.9596,                  !- Year 14 Escalation
    0.9618,                  !- Year 15 Escalation
    0.9614,                  !- Year 16 Escalation
    0.9618,                  !- Year 17 Escalation
    0.9618,                  !- Year 18 Escalation
    0.9593,                  !- Year 19 Escalation
    0.9589,                  !- Year 20 Escalation
    0.9607,                  !- Year 21 Escalation
    0.9625,                  !- Year 22 Escalation
    0.9650,                  !- Year 23 Escalation
    0.9708,                  !- Year 24 Escalation
    0.9751,                  !- Year 25 Escalation
    0.9762,                  !- Year 26 Escalation
    0.9766,                  !- Year 27 Escalation
    0.9766,                  !- Year 28 Escalation
    0.9769,                  !- Year 29 Escalation
    0.9773;                  !- Year 30 Escalation

  LifeCycleCost:UsePriceEscalation,
    U.S. Avg  Commercial-Distillate Oil,  !- LCC Price Escalation Name
    FuelOil#1,               !- Resource
    2011,                    !- Escalation Start Year
    January,                 !- Escalation Start Month
    0.9714,                  !- Year 1 Escalation
    0.9730,                  !- Year 2 Escalation
    0.9942,                  !- Year 3 Escalation
    1.0164,                  !- Year 4 Escalation
    1.0541,                  !- Year 5 Escalation
    1.0928,                  !- Year 6 Escalation
    1.1267,                  !- Year 7 Escalation
    1.1580,                  !- Year 8 Escalation
    1.1792,                  !- Year 9 Escalation
    1.1967,                  !- Year 10 Escalation
    1.2200,                  !- Year 11 Escalation
    1.2333,                  !- Year 12 Escalation
    1.2566,                  !- Year 13 Escalation
    1.2709,                  !- Year 14 Escalation
    1.2826,                  !- Year 15 Escalation
    1.2985,                  !- Year 16 Escalation
    1.3102,                  !- Year 17 Escalation
    1.3250,                  !- Year 18 Escalation
    1.3261,                  !- Year 19 Escalation
    1.3282,                  !- Year 20 Escalation
    1.3324,                  !- Year 21 Escalation
    1.3356,                  !- Year 22 Escalation
    1.3431,                  !- Year 23 Escalation
    1.3510,                  !- Year 24 Escalation
    1.3568,                  !- Year 25 Escalation
    1.3606,                  !- Year 26 Escalation
    1.3637,                  !- Year 27 Escalation
    1.3674,                  !- Year 28 Escalation
    1.3706,                  !- Year 29 Escalation
    1.3743;                  !- Year 30 Escalation

  LifeCycleCost:UsePriceEscalation,
    U.S. Avg  Commercial-Residual Oil,  !- LCC Price Escalation Name
    FuelOil#2,               !- Resource
    2011,                    !- Escalation Start Year
    January,                 !- Escalation Start Month
    0.8469,                  !- Year 1 Escalation
    0.8257,                  !- Year 2 Escalation
    0.8681,                  !- Year 3 Escalation
    0.8988,                  !- Year 4 Escalation
    0.9289,                  !- Year 5 Escalation
    0.9604,                  !- Year 6 Escalation
    0.9897,                  !- Year 7 Escalation
    1.0075,                  !- Year 8 Escalation
    1.0314,                  !- Year 9 Escalation
    1.0554,                  !- Year 10 Escalation
    1.0861,                  !- Year 11 Escalation
    1.1278,                  !- Year 12 Escalation
    1.1497,                  !- Year 13 Escalation
    1.1620,                  !- Year 14 Escalation
    1.1743,                  !- Year 15 Escalation
    1.1852,                  !- Year 16 Escalation
    1.1948,                  !- Year 17 Escalation
    1.2037,                  !- Year 18 Escalation
    1.2071,                  !- Year 19 Escalation
    1.2119,                  !- Year 20 Escalation
    1.2139,                  !- Year 21 Escalation
    1.2194,                  !- Year 22 Escalation
    1.2276,                  !- Year 23 Escalation
    1.2365,                  !- Year 24 Escalation
    1.2420,                  !- Year 25 Escalation
    1.2461,                  !- Year 26 Escalation
    1.2509,                  !- Year 27 Escalation
    1.2550,                  !- Year 28 Escalation
    1.2591,                  !- Year 29 Escalation
    1.2638;                  !- Year 30 Escalation

  LifeCycleCost:UsePriceEscalation,
    U.S. Avg  Commercial-Natural gas,  !- LCC Price Escalation Name
    NaturalGas,              !- Resource
    2011,                    !- Escalation Start Year
    January,                 !- Escalation Start Month
    0.9823,                  !- Year 1 Escalation
    0.9557,                  !- Year 2 Escalation
    0.9279,                  !- Year 3 Escalation
    0.9257,                  !- Year 4 Escalation
    0.9346,                  !- Year 5 Escalation
    0.9412,                  !- Year 6 Escalation
    0.9512,                  !- Year 7 Escalation
    0.9645,                  !- Year 8 Escalation
    0.9856,                  !- Year 9 Escalation
    1.0067,                  !- Year 10 Escalation
    1.0222,                  !- Year 11 Escalation
    1.0410,                  !- Year 12 Escalation
    1.0610,                  !- Year 13 Escalation
    1.0787,                  !- Year 14 Escalation
    1.0942,                  !- Year 15 Escalation
    1.1098,                  !- Year 16 Escalation
    1.1220,                  !- Year 17 Escalation
    1.1308,                  !- Year 18 Escalation
    1.1386,                  !- Year 19 Escalation
    1.1486,                  !- Year 20 Escalation
    1.1619,                  !- Year 21 Escalation
    1.1763,                  !- Year 22 Escalation
    1.1918,                  !- Year 23 Escalation
    1.2118,                  !- Year 24 Escalation
    1.2284,                  !- Year 25 Escalation
    1.2439,                  !- Year 26 Escalation
    1.2605,                  !- Year 27 Escalation
    1.2772,                  !- Year 28 Escalation
    1.2938,                  !- Year 29 Escalation
    1.3115;                  !- Year 30 Escalation

  LifeCycleCost:UsePriceEscalation,
    U.S. Avg  Commercial-Coal,  !- LCC Price Escalation Name
    Coal,                    !- Resource
    2011,                    !- Escalation Start Year
    January,                 !- Escalation Start Month
    0.9970,                  !- Year 1 Escalation
    1.0089,                  !- Year 2 Escalation
    1.0089,                  !- Year 3 Escalation
    0.9941,                  !- Year 4 Escalation
    0.9941,                  !- Year 5 Escalation
    1.0000,                  !- Year 6 Escalation
    1.0030,                  !- Year 7 Escalation
    1.0059,                  !- Year 8 Escalation
    1.0089,                  !- Year 9 Escalation
    1.0119,                  !- Year 10 Escalation
    1.0148,                  !- Year 11 Escalation
    1.0178,                  !- Year 12 Escalation
    1.0208,                  !- Year 13 Escalation
    1.0267,                  !- Year 14 Escalation
    1.0297,                  !- Year 15 Escalation
    1.0356,                  !- Year 16 Escalation
    1.0415,                  !- Year 17 Escalation
    1.0534,                  !- Year 18 Escalation
    1.0564,                  !- Year 19 Escalation
    1.0593,                  !- Year 20 Escalation
    1.0653,                  !- Year 21 Escalation
    1.0712,                  !- Year 22 Escalation
    1.0742,                  !- Year 23 Escalation
    1.0801,                  !- Year 24 Escalation
    1.0831,                  !- Year 25 Escalation
    1.0831,                  !- Year 26 Escalation
    1.0861,                  !- Year 27 Escalation
    1.0890,                  !- Year 28 Escalation
    1.0920,                  !- Year 29 Escalation
    1.0950;                  !- Year 30 Escalation

  Building,
    LowITE-SmallDataCenter-ASHRAE 169-2006-2A created: 2017-06-07 18:06:51 -0700,  !- Name
    0,                       !- North Axis {deg}
    City,                    !- Terrain
    0.04,                    !- Loads Convergence Tolerance Value
    0.4,                     !- Temperature Convergence Tolerance Value {deltaC}
    FullExterior,            !- Solar Distribution
    25,                      !- Maximum Number of Warmup Days
    6;                       !- Minimum Number of Warmup Days

  Zone,
    ComputerRoom ZN,         !- Name
    0,                       !- Direction of Relative North {deg}
    0,                       !- X Origin {m}
    0,                       !- Y Origin {m}
    0,                       !- Z Origin {m}
    ,                        !- Type
    ,                        !- Multiplier
    ,                        !- Ceiling Height {m}
    ,                        !- Volume {m3}
    ,                        !- Floor Area {m2}
    ,                        !- Zone Inside Convection Algorithm
    ;                        !- Zone Outside Convection Algorithm

  BuildingSurface:Detailed,
    ComputerRoom_GroundFloor_0_0_0,  !- Name
    Floor,                   !- Surface Type
    Floor Adiabatic construction,  !- Construction Name
    ComputerRoom ZN,         !- Zone Name
    Adiabatic,               !- Outside Boundary Condition
    ,                        !- Outside Boundary Condition Object
    NoSun,                   !- Sun Exposure
    NoWind,                  !- Wind Exposure
    ,                        !- View Factor to Ground
    ,                        !- Number of Vertices
    3.4912388997,-1.6267671711,0,  !- X,Y,Z ==> Vertex 1 {m}
    3.4912388997,-9.0913191711,0,  !- X,Y,Z ==> Vertex 2 {m}
    -3.9733131003,-9.0913191711,0,  !- X,Y,Z ==> Vertex 3 {m}
    -3.9733131003,-1.6267671711,0;  !- X,Y,Z ==> Vertex 4 {m}

  BuildingSurface:Detailed,
    ComputerRoom_Roof_1_0_0, !- Name
    Roof,                    !- Surface Type
    Adiabatic Roof,          !- Construction Name
    ComputerRoom ZN,         !- Zone Name
    Outdoors,                !- Outside Boundary Condition
    ,                        !- Outside Boundary Condition Object
    SunExposed,              !- Sun Exposure
    WindExposed,             !- Wind Exposure
    ,                        !- View Factor to Ground
    ,                        !- Number of Vertices
    3.4912388997,-9.0913191711,4.2672,  !- X,Y,Z ==> Vertex 1 {m}
    3.4912388997,-1.6267671711,4.2672,  !- X,Y,Z ==> Vertex 2 {m}
    -3.9733131003,-1.6267671711,4.2672,  !- X,Y,Z ==> Vertex 3 {m}
    -3.9733131003,-9.0913191711,4.2672;  !- X,Y,Z ==> Vertex 4 {m}

  BuildingSurface:Detailed,
    ComputerRoom_Wall_2_0_0, !- Name
    Wall,                    !- Surface Type
    Adiabatic Wall,          !- Construction Name
    ComputerRoom ZN,         !- Zone Name
    Outdoors,                !- Outside Boundary Condition
    ,                        !- Outside Boundary Condition Object
    SunExposed,              !- Sun Exposure
    WindExposed,             !- Wind Exposure
    ,                        !- View Factor to Ground
    ,                        !- Number of Vertices
    3.4912388997,-9.0913191711,4.2672,  !- X,Y,Z ==> Vertex 1 {m}
    3.4912388997,-9.0913191711,0,  !- X,Y,Z ==> Vertex 2 {m}
    3.4912388997,-1.6267671711,0,  !- X,Y,Z ==> Vertex 3 {m}
    3.4912388997,-1.6267671711,4.2672;  !- X,Y,Z ==> Vertex 4 {m}

  BuildingSurface:Detailed,
    ComputerRoom_Wall_3_0_0, !- Name
    Wall,                    !- Surface Type
    Adiabatic Wall,          !- Construction Name
    ComputerRoom ZN,         !- Zone Name
    Outdoors,                !- Outside Boundary Condition
    ,                        !- Outside Boundary Condition Object
    SunExposed,              !- Sun Exposure
    WindExposed,             !- Wind Exposure
    ,                        !- View Factor to Ground
    ,                        !- Number of Vertices
    3.4912388997,-1.6267671711,4.2672,  !- X,Y,Z ==> Vertex 1 {m}
    3.4912388997,-1.6267671711,0,  !- X,Y,Z ==> Vertex 2 {m}
    -3.9733131003,-1.6267671711,0,  !- X,Y,Z ==> Vertex 3 {m}
    -3.9733131003,-1.6267671711,4.2672;  !- X,Y,Z ==> Vertex 4 {m}

  BuildingSurface:Detailed,
    ComputerRoom_Wall_4_0_0, !- Name
    Wall,                    !- Surface Type
    Adiabatic Wall,          !- Construction Name
    ComputerRoom ZN,         !- Zone Name
    Outdoors,                !- Outside Boundary Condition
    ,                        !- Outside Boundary Condition Object
    SunExposed,              !- Sun Exposure
    WindExposed,             !- Wind Exposure
    ,                        !- View Factor to Ground
    ,                        !- Number of Vertices
    -3.9733131003,-1.6267671711,4.2672,  !- X,Y,Z ==> Vertex 1 {m}
    -3.9733131003,-1.6267671711,0,  !- X,Y,Z ==> Vertex 2 {m}
    -3.9733131003,-9.0913191711,0,  !- X,Y,Z ==> Vertex 3 {m}
    -3.9733131003,-9.0913191711,4.2672;  !- X,Y,Z ==> Vertex 4 {m}

  BuildingSurface:Detailed,
    ComputerRoom_Wall_5_0_0, !- Name
    Wall,                    !- Surface Type
    Adiabatic Wall,          !- Construction Name
    ComputerRoom ZN,         !- Zone Name
    Outdoors,                !- Outside Boundary Condition
    ,                        !- Outside Boundary Condition Object
    SunExposed,              !- Sun Exposure
    WindExposed,             !- Wind Exposure
    ,                        !- View Factor to Ground
    ,                        !- Number of Vertices
    -3.9733131003,-9.0913191711,4.2672,  !- X,Y,Z ==> Vertex 1 {m}
    -3.9733131003,-9.0913191711,0,  !- X,Y,Z ==> Vertex 2 {m}
    3.4912388997,-9.0913191711,0,  !- X,Y,Z ==> Vertex 3 {m}
    3.4912388997,-9.0913191711,4.2672;  !- X,Y,Z ==> Vertex 4 {m}

  ZoneInfiltration:DesignFlowRate,
    ComputerRoom Infiltration,  !- Name
    ComputerRoom ZN,         !- Zone or ZoneList Name
    Always On Discrete,      !- Schedule Name
    Flow/ExteriorArea,       !- Design Flow Rate Calculation Method
    ,                        !- Design Flow Rate {m3/s}
    ,                        !- Flow per Zone Floor Area {m3/s-m2}
    0,                       !- Flow per Exterior Surface Area {m3/s-m2}
    ,                        !- Air Changes per Hour {1/hr}
    0,                       !- Constant Term Coefficient
    0,                       !- Temperature Term Coefficient
    0.224,                   !- Velocity Term Coefficient
    0;                       !- Velocity Squared Term Coefficient

  ZoneControl:Thermostat,
    ComputerRoom ZN Thermostat,  !- Name
    ComputerRoom ZN,         !- Zone or ZoneList Name
    ComputerRoom ZN Thermostat Schedule,  !- Control Type Schedule Name
    ThermostatSetpoint:DualSetpoint,  !- Control 1 Object Type
    SmallDataCenter ComputerRoom Thermostat 1;  !- Control 1 Name

  Schedule:Compact,
    ComputerRoom ZN Thermostat Schedule,  !- Name
    ComputerRoom ZN Thermostat Schedule Type Limits,  !- Schedule Type Limits Name
    Through: 12/31,          !- Field 1
    For: AllDays,            !- Field 2
    Until: 24:00,4;          !- Field 3

  ScheduleTypeLimits,
    ComputerRoom ZN Thermostat Schedule Type Limits,  !- Name
    0,                       !- Lower Limit Value
    4,                       !- Upper Limit Value
    DISCRETE;                !- Numeric Type

  ThermostatSetpoint:DualSetpoint,
    SmallDataCenter ComputerRoom Thermostat 1,  !- Name
    DataCenter HTGSETP_SCH,  !- Heating Setpoint Temperature Schedule Name
    DataCenter CLGSETP_SCH;  !- Cooling Setpoint Temperature Schedule Name

  ScheduleTypeLimits,
    Temperature,             !- Name
    ,                        !- Lower Limit Value
    ,                        !- Upper Limit Value
    Continuous,              !- Numeric Type
    temperature;             !- Unit Type

  Schedule:Day:Interval,
    DataCenter HTGSETP_SCH Default,  !- Name
    Temperature,             !- Schedule Type Limits Name
    No,                      !- Interpolate to Timestep
    24:00,                   !- Time 1
    15;                      !- Value Until Time 1

  Schedule:Week:Daily,
    Schedule:Week:Daily {0ed4c2ae-1dff-4f1d-91c8-42faa274daff},  !- Name
    DataCenter HTGSETP_SCH Default,  !- Sunday Schedule:Day Name
    DataCenter HTGSETP_SCH Default,  !- Monday Schedule:Day Name
    DataCenter HTGSETP_SCH Default,  !- Tuesday Schedule:Day Name
    DataCenter HTGSETP_SCH Default,  !- Wednesday Schedule:Day Name
    DataCenter HTGSETP_SCH Default,  !- Thursday Schedule:Day Name
    DataCenter HTGSETP_SCH Default,  !- Friday Schedule:Day Name
    DataCenter HTGSETP_SCH Default,  !- Saturday Schedule:Day Name
    DataCenter HTGSETP_SCH Default,  !- Holiday Schedule:Day Name
    DataCenter HTGSETP_SCH Summer Design Day,  !- SummerDesignDay Schedule:Day Name
    DataCenter HTGSETP_SCH Winter Design Day,  !- WinterDesignDay Schedule:Day Name
    DataCenter HTGSETP_SCH Default,  !- CustomDay1 Schedule:Day Name
    DataCenter HTGSETP_SCH Default;  !- CustomDay2 Schedule:Day Name

  Schedule:Year,
    DataCenter HTGSETP_SCH,  !- Name
    Temperature,             !- Schedule Type Limits Name
    Schedule:Week:Daily {0ed4c2ae-1dff-4f1d-91c8-42faa274daff},  !- Schedule:Week Name 1
    1,                       !- Start Month 1
    1,                       !- Start Day 1
    12,                      !- End Month 1
    31;                      !- End Day 1

  Schedule:Day:Interval,
    DataCenter HTGSETP_SCH Summer Design Day,  !- Name
    Temperature,             !- Schedule Type Limits Name
    No,                      !- Interpolate to Timestep
    24:00,                   !- Time 1
    15;                      !- Value Until Time 1

  Schedule:Day:Interval,
    DataCenter HTGSETP_SCH Winter Design Day,  !- Name
    Temperature,             !- Schedule Type Limits Name
    No,                      !- Interpolate to Timestep
    24:00,                   !- Time 1
    15;                      !- Value Until Time 1

  Schedule:Day:Interval,
    DataCenter CLGSETP_SCH Default,  !- Name
    Temperature,             !- Schedule Type Limits Name
    No,                      !- Interpolate to Timestep
    24:00,                   !- Time 1
    35;                      !- Value Until Time 1

  Schedule:Week:Daily,
    Schedule:Week:Daily {69a01470-fecc-41f0-a548-d2f5ad8d37ad},  !- Name
    DataCenter CLGSETP_SCH Default,  !- Sunday Schedule:Day Name
    DataCenter CLGSETP_SCH Default,  !- Monday Schedule:Day Name
    DataCenter CLGSETP_SCH Default,  !- Tuesday Schedule:Day Name
    DataCenter CLGSETP_SCH Default,  !- Wednesday Schedule:Day Name
    DataCenter CLGSETP_SCH Default,  !- Thursday Schedule:Day Name
    DataCenter CLGSETP_SCH Default,  !- Friday Schedule:Day Name
    DataCenter CLGSETP_SCH Default,  !- Saturday Schedule:Day Name
    DataCenter CLGSETP_SCH Default,  !- Holiday Schedule:Day Name
    DataCenter CLGSETP_SCH Summer Design Day,  !- SummerDesignDay Schedule:Day Name
    DataCenter CLGSETP_SCH Winter Design Day,  !- WinterDesignDay Schedule:Day Name
    DataCenter CLGSETP_SCH Default,  !- CustomDay1 Schedule:Day Name
    DataCenter CLGSETP_SCH Default;  !- CustomDay2 Schedule:Day Name

  Schedule:Year,
    DataCenter CLGSETP_SCH,  !- Name
    Temperature,             !- Schedule Type Limits Name
    Schedule:Week:Daily {69a01470-fecc-41f0-a548-d2f5ad8d37ad},  !- Schedule:Week Name 1
    1,                       !- Start Month 1
    1,                       !- Start Day 1
    12,                      !- End Month 1
    31;                      !- End Day 1

  Schedule:Day:Interval,
    DataCenter CLGSETP_SCH Summer Design Day,  !- Name
    Temperature,             !- Schedule Type Limits Name
    No,                      !- Interpolate to Timestep
    24:00,                   !- Time 1
    35;                      !- Value Until Time 1

  Schedule:Day:Interval,
    DataCenter CLGSETP_SCH Winter Design Day,  !- Name
    Temperature,             !- Schedule Type Limits Name
    No,                      !- Interpolate to Timestep
    24:00,                   !- Time 1
    35;                      !- Value Until Time 1

  ZoneHVAC:EquipmentConnections,
    ComputerRoom ZN,         !- Zone Name
    ComputerRoom ZN Equipment List,  !- Zone Conditioning Equipment List Name
    ComputerRoom ZN Inlet Node List,  !- Zone Air Inlet Node or NodeList Name
    ,                        !- Zone Air Exhaust Node or NodeList Name
    Node 1,                  !- Zone Air Node Name
    Node 11;                 !- Zone Return Air Node or NodeList Name

  NodeList,
    ComputerRoom ZN Inlet Node List,  !- Name
    Node 6;                  !- Node 1 Name

  ZoneHVAC:AirDistributionUnit,
    ADU ComputerRoom ZN CRAC Diffuser,  !- Name
    Node 6,                  !- Air Distribution Unit Outlet Node Name
    AirTerminal:SingleDuct:VAV:NoReheat,  !- Air Terminal Object Type
    ComputerRoom ZN CRAC Diffuser;  !- Air Terminal Name

  AirTerminal:SingleDuct:VAV:NoReheat,
    ComputerRoom ZN CRAC Diffuser,  !- Name
    Always On Discrete,      !- Availability Schedule Name
    Node 6,                  !- Air Outlet Node Name
    Node 12,                 !- Air Inlet Node Name
    Autosize,                !- Maximum Air Flow Rate {m3/s}
    Constant,                !- Zone Minimum Air Flow Input Method
    0.3,                     !- Constant Minimum Air Flow Fraction
    0;                       !- Fixed Minimum Air Flow Rate {m3/s}

  Schedule:Constant,Always On Discrete,OnOff,1;

  ZoneHVAC:EquipmentList,
    ComputerRoom ZN Equipment List,  !- Name
    ZoneHVAC:AirDistributionUnit,  !- Zone Equipment 1 Object Type
    ADU ComputerRoom ZN CRAC Diffuser,  !- Zone Equipment 1 Name
    1,                       !- Zone Equipment 1 Cooling Sequence
    1;                       !- Zone Equipment 1 Heating or No-Load Sequence

  Sizing:Zone,
    ComputerRoom ZN,         !- Zone or ZoneList Name
    SupplyAirTemperature,    !- Zone Cooling Design Supply Air Temperature Input Method
    22.5,                    !- Zone Cooling Design Supply Air Temperature {C}
    11.11,                   !- Zone Cooling Design Supply Air Temperature Difference {deltaC}
    SupplyAirTemperature,    !- Zone Heating Design Supply Air Temperature Input Method
    22.5,                    !- Zone Heating Design Supply Air Temperature {C}
    11.11,                   !- Zone Heating Design Supply Air Temperature Difference {deltaC}
    0.0085,                  !- Zone Cooling Design Supply Air Humidity Ratio {kgWater/kgDryAir}
    0.008,                   !- Zone Heating Design Supply Air Humidity Ratio {kgWater/kgDryAir}
    SmallDataCenter ComputerRoom Ventilation,  !- Design Specification Outdoor Air Object Name
    ,                        !- Zone Heating Sizing Factor
    ,                        !- Zone Cooling Sizing Factor
    DesignDay,               !- Cooling Design Air Flow Method
    0,                       !- Cooling Design Air Flow Rate {m3/s}
    0.000762,                !- Cooling Minimum Air Flow per Zone Floor Area {m3/s-m2}
    0,                       !- Cooling Minimum Air Flow {m3/s}
    0,                       !- Cooling Minimum Air Flow Fraction
    DesignDay,               !- Heating Design Air Flow Method
    0,                       !- Heating Design Air Flow Rate {m3/s}
    0.002032,                !- Heating Maximum Air Flow per Zone Floor Area {m3/s-m2}
    0.1415762,               !- Heating Maximum Air Flow {m3/s}
    0.3,                     !- Heating Maximum Air Flow Fraction
    ComputerRoom ZN Design Spec Zone Air Dist,  !- Design Specification Zone Air Distribution Object Name
    No;                      !- Account for Dedicated Outdoor Air System

  DesignSpecification:ZoneAirDistribution,
    ComputerRoom ZN Design Spec Zone Air Dist,  !- Name
    1,                       !- Zone Air Distribution Effectiveness in Cooling Mode {dimensionless}
    1;                       !- Zone Air Distribution Effectiveness in Heating Mode {dimensionless}

  ScheduleTypeLimits,
    OnOff,                   !- Name
    0,                       !- Lower Limit Value
    1,                       !- Upper Limit Value
    Discrete,                !- Numeric Type
    availability;            !- Unit Type

  Schedule:Day:Interval,
    DataCenter HVACOperationSchd Default,  !- Name
    OnOff,                   !- Schedule Type Limits Name
    No,                      !- Interpolate to Timestep
    24:00,                   !- Time 1
    1;                       !- Value Until Time 1

  Schedule:Week:Daily,
    Schedule:Week:Daily {da23983d-69b1-494e-a6b9-97a3ea46cee9},  !- Name
    DataCenter HVACOperationSchd Default,  !- Sunday Schedule:Day Name
    DataCenter HVACOperationSchd Default,  !- Monday Schedule:Day Name
    DataCenter HVACOperationSchd Default,  !- Tuesday Schedule:Day Name
    DataCenter HVACOperationSchd Default,  !- Wednesday Schedule:Day Name
    DataCenter HVACOperationSchd Default,  !- Thursday Schedule:Day Name
    DataCenter HVACOperationSchd Default,  !- Friday Schedule:Day Name
    DataCenter HVACOperationSchd Default,  !- Saturday Schedule:Day Name
    DataCenter HVACOperationSchd Default,  !- Holiday Schedule:Day Name
    DataCenter HVACOperationSchd Summer Design Day,  !- SummerDesignDay Schedule:Day Name
    DataCenter HVACOperationSchd Winter Design Day,  !- WinterDesignDay Schedule:Day Name
    DataCenter HVACOperationSchd Default,  !- CustomDay1 Schedule:Day Name
    DataCenter HVACOperationSchd Default;  !- CustomDay2 Schedule:Day Name

  Schedule:Year,
    DataCenter HVACOperationSchd,  !- Name
    OnOff,                   !- Schedule Type Limits Name
    Schedule:Week:Daily {da23983d-69b1-494e-a6b9-97a3ea46cee9},  !- Schedule:Week Name 1
    1,                       !- Start Month 1
    1,                       !- Start Day 1
    12,                      !- End Month 1
    31;                      !- End Day 1

  Schedule:Day:Interval,
    DataCenter HVACOperationSchd Summer Design Day,  !- Name
    OnOff,                   !- Schedule Type Limits Name
    No,                      !- Interpolate to Timestep
    24:00,                   !- Time 1
    1;                       !- Value Until Time 1

  Schedule:Day:Interval,
    DataCenter HVACOperationSchd Winter Design Day,  !- Name
    OnOff,                   !- Schedule Type Limits Name
    No,                      !- Interpolate to Timestep
    24:00,                   !- Time 1
    1;                       !- Value Until Time 1

  Controller:MechanicalVentilation,
    Controller Mechanical Ventilation 1,  !- Name
    DataCenter HVACOperationSchd,  !- Availability Schedule Name
    No,                      !- Demand Controlled Ventilation
    ZoneSum,                 !- System Outdoor Air Method
    ,                        !- Zone Maximum Outdoor Air Fraction {dimensionless}
    ComputerRoom ZN,         !- Zone 1 Name
    SmallDataCenter ComputerRoom Ventilation,  !- Design Specification Outdoor Air Object Name 1
    ComputerRoom ZN Design Spec Zone Air Dist;  !- Design Specification Zone Air Distribution Object Name 1

  DesignSpecification:OutdoorAir,
    SmallDataCenter ComputerRoom Ventilation,  !- Name
    Sum,                     !- Outdoor Air Method
    0,                       !- Outdoor Air Flow per Person {m3/s-person}
    0,                       !- Outdoor Air Flow per Zone Floor Area {m3/s-m2}
    0,                       !- Outdoor Air Flow per Zone {m3/s}
    0;                       !- Outdoor Air Flow Air Changes per Hour {1/hr}

  SimulationControl,
    Yes,                     !- Do Zone Sizing Calculation
    Yes,                     !- Do System Sizing Calculation
    No,                      !- Do Plant Sizing Calculation
    No,                      !- Run Simulation for Sizing Periods
    Yes;                     !- Run Simulation for Weather File Run Periods

  ConvergenceLimits,
    1,                       !- Minimum System Timestep {minutes}
    25;                      !- Maximum HVAC Iterations

  HeatBalanceAlgorithm,ConductionTransferFunction,2000;

  RunPeriod,
    DataCenter,              !- Name
    1,                       !- Begin Month
    1,                       !- Begin Day of Month
    12,                      !- End Month
    31,                      !- End Day of Month