! DaylightingDeviceShelf.idf
!
! Basic file description:
! This model consists of two separate buildings.  Both buildings are identical in geometry and construction.
! Both buildings have a two-piece window composed of an upper and a lower window on the south wall.
! On one of the buildings a daylighting shelf projects between the two windows with inside and outside
! surfaces.  All interior surfaces except floor are painted white for optimal daylight distribution.
! An illuminance map is output for both building zones.
! Run:      2 design days.
! Building: Standard constructions.  Floors are partitions.  No shading between buildings.
! Internal: Added lights from DaylightingDeviceTubular
! System:   None.
! Plant:    None.
! FCW, 6/17/04: changed height for daylighting illuminance maps from 0.0m to 0.8m to correspond
!               to reference point height

  Version,24.1;

  Building,
    Daylighting Shelf Example,  !- Name
    0.0,                     !- North Axis {deg}
    Suburbs,                 !- Terrain
    0.04,                    !- Loads Convergence Tolerance Value {W}
    0.04,                    !- Temperature Convergence Tolerance Value {deltaC}
    FullInteriorAndExterior, !- Solar Distribution
    25,                      !- Maximum Number of Warmup Days
    6;                       !- Minimum Number of Warmup Days

  Timestep,6;

  ShadowCalculation,
    PolygonClipping,         !- Shading Calculation Method
    Periodic,                !- Shading Calculation Update Frequency Method
    20;                      !- Shading Calculation Update Frequency

  HeatBalanceAlgorithm,ConductionTransferFunction;

  SurfaceConvectionAlgorithm:Inside,TARP;

  SurfaceConvectionAlgorithm:Outside,DOE-2;

  GlobalGeometryRules,
    UpperLeftCorner,         !- Starting Vertex Position
    CounterClockWise,        !- Vertex Entry Direction
    Relative;                !- Coordinate System

  Site:Location,
    CHICAGO_IL_USA_WMO_725300,  !- Name
    42.00,                   !- Latitude {deg}
    -87.88,                  !- Longitude {deg}
    -6.00,                   !- Time Zone {hr}
    190.00;                  !- Elevation {m}

 ! CHICAGO_IL_USA Annual Heating 99%, MaxDB=-17.3°C

  SizingPeriod:DesignDay,
    CHICAGO Ann Htg 99% Condns DB,  !- Name
    1,                       !- Month
    21,                      !- Day of Month
    WinterDesignDay,         !- Day Type
    -17.3,                   !- Maximum Dry-Bulb Temperature {C}
    0.0,                     !- Daily Dry-Bulb Temperature Range {deltaC}
    ,                        !- Dry-Bulb Temperature Range Modifier Type
    ,                        !- Dry-Bulb Temperature Range Modifier Day Schedule Name
    Wetbulb,                 !- Humidity Condition Type
    -17.3,                   !- Wetbulb or DewPoint at Maximum Dry-Bulb {C}
    ,                        !- Humidity Condition Day Schedule Name
    ,                        !- Humidity Ratio at Maximum Dry-Bulb {kgWater/kgDryAir}
    ,                        !- Enthalpy at Maximum Dry-Bulb {J/kg}
    ,                        !- Daily Wet-Bulb Temperature Range {deltaC}
    99063.,                  !- Barometric Pressure {Pa}
    4.9,                     !- Wind Speed {m/s}
    270,                     !- Wind Direction {deg}
    No,                      !- Rain Indicator
    No,                      !- Snow Indicator
    No,                      !- Daylight Saving Time Indicator
    ASHRAEClearSky,          !- Solar Model Indicator
    ,                        !- Beam Solar Day Schedule Name
    ,                        !- Diffuse Solar Day Schedule Name
    ,                        !- ASHRAE Clear Sky Optical Depth for Beam Irradiance (taub) {dimensionless}
    ,                        !- ASHRAE Clear Sky Optical Depth for Diffuse Irradiance (taud) {dimensionless}
    0.00;                    !- Sky Clearness

 ! CHICAGO_IL_USA Annual Cooling (DB=>MWB) 1%, MaxDB=31.5°C MWB=23°C

  SizingPeriod:DesignDay,
    CHICAGO Ann Clg 1% Condns DB=>MWB,  !- Name
    7,                       !- Month
    21,                      !- Day of Month
    SummerDesignDay,         !- Day Type
    31.5,                    !- Maximum Dry-Bulb Temperature {C}
    10.7,                    !- Daily Dry-Bulb Temperature Range {deltaC}
    ,                        !- Dry-Bulb Temperature Range Modifier Type
    ,                        !- Dry-Bulb Temperature Range Modifier Day Schedule Name
    Wetbulb,                 !- Humidity Condition Type
    23,                      !- Wetbulb or DewPoint at Maximum Dry-Bulb {C}
    ,                        !- Humidity Condition Day Schedule Name
    ,                        !- Humidity Ratio at Maximum Dry-Bulb {kgWater/kgDryAir}
    ,                        !- Enthalpy at Maximum Dry-Bulb {J/kg}
    ,                        !- Daily Wet-Bulb Temperature Range {deltaC}
    99063.,                  !- Barometric Pressure {Pa}
    5.3,                     !- Wind Speed {m/s}
    230,                     !- Wind Direction {deg}
    No,                      !- Rain Indicator
    No,                      !- Snow Indicator
    No,                      !- Daylight Saving Time Indicator
    ASHRAEClearSky,          !- Solar Model Indicator
    ,                        !- Beam Solar Day Schedule Name
    ,                        !- Diffuse Solar Day Schedule Name
    ,                        !- ASHRAE Clear Sky Optical Depth for Beam Irradiance (taub) {dimensionless}
    ,                        !- ASHRAE Clear Sky Optical Depth for Diffuse Irradiance (taud) {dimensionless}
    1.00;                    !- Sky Clearness

  RunPeriod,
    Run Period 1,            !- Name
    1,                       !- Begin Month
    1,                       !- Begin Day of Month
    ,                        !- Begin Year
    12,                      !- End Month
    31,                      !- End Day of Month
    ,                        !- End Year
    Tuesday,                 !- Day of Week for Start Day
    Yes,                     !- Use Weather File Holidays and Special Days
    Yes,                     !- Use Weather File Daylight Saving Period
    No,                      !- Apply Weekend Holiday Rule
    Yes,                     !- Use Weather File Rain Indicators
    Yes;                     !- Use Weather File Snow Indicators

  SimulationControl,
    NO,                      !- Do Zone Sizing Calculation
    NO,                      !- Do System Sizing Calculation
    NO,                      !- Do Plant Sizing Calculation
    YES,                     !- Run Simulation for Sizing Periods
    NO,                      !- Run Simulation for Weather File Run Periods
    No,                      !- Do HVAC Sizing Simulation for Sizing Periods
    1;                       !- Maximum Number of HVAC Sizing Simulation Passes

  Material,
    A1 - 1 IN STUCCO,        !- Name
    Smooth,                  !- Roughness
    2.5389841E-02,           !- Thickness {m}
    0.6918309,               !- Conductivity {W/m-K}
    1858.142,                !- Density {kg/m3}
    836.8,                   !- Specific Heat {J/kg-K}
    0.90,                    !- Thermal Absorptance
    0.92,                    !- Solar Absorptance
    0.92;                    !- Visible Absorptance

  Material,
    C4 - 4 IN COMMON BRICK,  !- Name
    Rough,                   !- Roughness
    0.1014984,               !- Thickness {m}
    0.7264224,               !- Conductivity {W/m-K}
    1922.216,                !- Density {kg/m3}
    836.8,                   !- Specific Heat {J/kg-K}
    0.90,                    !- Thermal Absorptance
    0.76,                    !- Solar Absorptance
    0.76;                    !- Visible Absorptance

  Material,
    E1 - 3 / 4 IN PLASTER OR GYP BOARD,  !- Name
    Smooth,                  !- Roughness
    1.9050000E-02,           !- Thickness {m}
    0.7264224,               !- Conductivity {W/m-K}
    1601.846,                !- Density {kg/m3}
    836.8,                   !- Specific Heat {J/kg-K}
    0.90,                    !- Thermal Absorptance
    0.30,                    !- Solar Absorptance
    0.30;                    !- Visible Absorptance

  Material,
    C6 - 8 IN CLAY TILE,     !- Name
    Smooth,                  !- Roughness
    0.2033016,               !- Thickness {m}
    0.5707605,               !- Conductivity {W/m-K}
    1121.292,                !- Density {kg/m3}
    836.8,                   !- Specific Heat {J/kg-K}
    0.90,                    !- Thermal Absorptance
    0.82,                    !- Solar Absorptance
    0.82;                    !- Visible Absorptance

  Material,
    C10 - 8 IN HW CONCRETE,  !- Name
    MediumRough,             !- Roughness
    0.2033016,               !- Thickness {m}
    1.729577,                !- Conductivity {W/m-K}
    2242.585,                !- Density {kg/m3}
    836.8,                   !- Specific Heat {J/kg-K}
    0.90,                    !- Thermal Absorptance
    0.65,                    !- Solar Absorptance
    0.65;                    !- Visible Absorptance

  Material,
    E2 - 1 / 2 IN SLAG OR STONE,  !- Name
    Rough,                   !- Roughness
    1.2710161E-02,           !- Thickness {m}
    1.435549,                !- Conductivity {W/m-K}
    881.0155,                !- Density {kg/m3}
    1673.6,                  !- Specific Heat {J/kg-K}
    0.90,                    !- Thermal Absorptance
    0.55,                    !- Solar Absorptance
    0.55;                    !- Visible Absorptance

  Material,
    E3 - 3 / 8 IN FELT AND MEMBRANE,  !- Name
    Rough,                   !- Roughness
    9.5402403E-03,           !- Thickness {m}
    0.1902535,               !- Conductivity {W/m-K}
    1121.292,                !- Density {kg/m3}
    1673.6,                  !- Specific Heat {J/kg-K}
    0.90,                    !- Thermal Absorptance
    0.75,                    !- Solar Absorptance
    0.75;                    !- Visible Absorptance

  Material,
    B5 - 1 IN DENSE INSULATION,  !- Name
    VeryRough,               !- Roughness
    2.5389841E-02,           !- Thickness {m}
    4.3239430E-02,           !- Conductivity {W/m-K}
    91.30524,                !- Density {kg/m3}
    836.8,                   !- Specific Heat {J/kg-K}
    0.90,                    !- Thermal Absorptance
    0.50,                    !- Solar Absorptance
    0.50;                    !- Visible Absorptance

  Material,
    ROOFING - ASPHALT SHINGLES,  !- Name
    VeryRough,               !- Roughness
    3.1999999E-03,           !- Thickness {m}
    2.9999999E-02,           !- Conductivity {W/m-K}
    1121.29,                 !- Density {kg/m3}
    830.0,                   !- Specific Heat {J/kg-K}
    0.90,                    !- Thermal Absorptance
    0.70,                    !- Solar Absorptance
    0.70;                    !- Visible Absorptance

  Material,
    BB46 - 5 / 8 IN PLYWOOD, !- Name
    Smooth,                  !- Roughness
    9.9999998E-03,           !- Thickness {m}
    0.110,                   !- Conductivity {W/m-K}
    544.62,                  !- Density {kg/m3}
    1210.0,                  !- Specific Heat {J/kg-K}
    0.90,                    !- Thermal Absorptance
    0.30,                    !- Solar Absorptance
    0.30;                    !- Visible Absorptance

  Material,
    INS - GLASS FIBER BONDED 3 IN,  !- Name
    VeryRough,               !- Roughness
    7.000E-02,               !- Thickness {m}
    2.9999999E-02,           !- Conductivity {W/m-K}
    96.11,                   !- Density {kg/m3}
    790.0,                   !- Specific Heat {J/kg-K}
    0.90,                    !- Thermal Absorptance
    0.50,                    !- Solar Absorptance
    0.50;                    !- Visible Absorptance

  Material,
    C12 - 2 IN HW CONCRETE - PAINTED WHITE,  !- Name
    MediumRough,             !- Roughness
    5.0901599E-02,           !- Thickness {m}
    1.729577,                !- Conductivity {W/m-K}
    2242.585,                !- Density {kg/m3}
    836.8,                   !- Specific Heat {J/kg-K}
    0.90,                    !- Thermal Absorptance
    0.30,                    !- Solar Absorptance
    0.30;                    !- Visible Absorptance

  WindowMaterial:Glazing,
    CLEAR GLASS,             !- Name
    SpectralAverage,         !- Optical Data Type
    ,                        !- Window Glass Spectral Data Set Name
    0.003,                   !- Thickness {m}
    0.837,                   !- Solar Transmittance at Normal Incidence
    7.50E-02,                !- Front Side Solar Reflectance at Normal Incidence
    7.50E-02,                !- Back Side Solar Reflectance at Normal Incidence
    0.898,                   !- Visible Transmittance at Normal Incidence
    8.10E-02,                !- Front Side Visible Reflectance at Normal Incidence
    8.10E-02,                !- Back Side Visible Reflectance at Normal Incidence
    0.0,                     !- Infrared Transmittance at Normal Incidence
    0.84,                    !- Front Side Infrared Hemispherical Emissivity
    0.84,                    !- Back Side Infrared Hemispherical Emissivity
    0.90;                    !- Conductivity {W/m-K}

  Construction,
    EXTWALL80,               !- Name
    A1 - 1 IN STUCCO,        !- Outside Layer
    C4 - 4 IN COMMON BRICK,  !- Layer 2
    E1 - 3 / 4 IN PLASTER OR GYP BOARD;  !- Layer 3

  Construction,
    FLOOR SLAB 8 IN,         !- Name
    C10 - 8 IN HW CONCRETE;  !- Outside Layer

  Construction,
    ROOF,                    !- Name
    ROOFING - ASPHALT SHINGLES,  !- Outside Layer
    E3 - 3 / 8 IN FELT AND MEMBRANE,  !- Layer 2
    BB46 - 5 / 8 IN PLYWOOD; !- Layer 3

  Construction,
    STANDARD WINDOW,         !- Name
    CLEAR GLASS;             !- Outside Layer

  Construction,
    SHELF,                   !- Name
    C12 - 2 IN HW CONCRETE - PAINTED WHITE;  !- Outside Layer

  Zone,
    Standard Zone,           !- Name
    0.0,                     !- Direction of Relative North {deg}
    50.0,                    !- X Origin {m}
    50.0,                    !- Y Origin {m}
    0.0,                     !- Z Origin {m}
    1,                       !- Type
    1,                       !- Multiplier
    autocalculate,           !- Ceiling Height {m}
    autocalculate;           !- Volume {m3}

  BuildingSurface:Detailed,
    Standard South Wall,     !- Name
    Wall,                    !- Surface Type
    EXTWALL80,               !- Construction Name
    Standard Zone,           !- Zone Name
    ,                        !- Space Name
    Outdoors,                !- Outside Boundary Condition
    ,                        !- Outside Boundary Condition Object
    SunExposed,              !- Sun Exposure
    WindExposed,             !- Wind Exposure
    0.5,                     !- View Factor to Ground
    4,                       !- Number of Vertices
    0.0,0.0,3.0,  !- X,Y,Z ==> Vertex 1 {m}
    0.0,0.0,0.0,  !- X,Y,Z ==> Vertex 2 {m}
    5.0,0.0,0.0,  !- X,Y,Z ==> Vertex 3 {m}
    5.0,0.0,3.0;  !- X,Y,Z ==> Vertex 4 {m}

  BuildingSurface:Detailed,
    Standard West Wall,      !- Name
    Wall,                    !- Surface Type
    EXTWALL80,               !- Construction Name
    Standard Zone,           !- Zone Name
    ,                        !- Space Name
    Outdoors,                !- Outside Boundary Condition
    ,                        !- Outside Boundary Condition Object
    SunExposed,              !- Sun Exposure
    WindExposed,             !- Wind Exposure
    0.5,                     !- View Factor to Ground
    4,                       !- Number of Vertices
    0.0,20.0,3.0,  !- X,Y,Z ==> Vertex 1 {m}
    0.0,20.0,0.0,  !- X,Y,Z ==> Vertex 2 {m}
    0.0,0.0,0.0,  !- X,Y,Z ==> Vertex 3 {m}
    0.0,0.0,3.0;  !- X,Y,Z ==> Vertex 4 {m}

  BuildingSurface:Detailed,
    Standard North Wall,     !- Name
    Wall,                    !- Surface Type
    EXTWALL80,               !- Construction Name
    Standard Zone,           !- Zone Name
    ,                        !- Space Name
    Outdoors,                !- Outside Boundary Condition
    ,                        !- Outside Boundary Condition Object
    SunExposed,              !- Sun Exposure
    WindExposed,             !- Wind Exposure
    0.5,                     !- View Factor to Ground
    4,                       !- Number of Vertices
    5.0,20.0,3.0,  !- X,Y,Z ==> Vertex 1 {m}
    5.0,20.0,0.0,  !- X,Y,Z ==> Vertex 2 {m}
    0.0,20.0,0.0,  !- X,Y,Z ==> Vertex 3 {m}
    0.0,20.0,3.0;  !- X,Y,Z ==> Vertex 4 {m}

  BuildingSurface:Detailed,
    Standard East Wall,      !- Name
    Wall,                    !- Surface Type
    EXTWALL80,               !- Construction Name
    Standard Zone,           !- Zone Name
    ,                        !- Space Name
    Outdoors,                !- Outside Boundary Condition
    ,                        !- Outside Boundary Condition Object
    SunExposed,              !- Sun Exposure
    WindExposed,             !- Wind Exposure
    0.5,                     !- View Factor to Ground
    4,                       !- Number of Vertices
    5.0,0.0,3.0,  !- X,Y,Z ==> Vertex 1 {m}
    5.0,0.0,0.0,  !- X,Y,Z ==> Vertex 2 {m}
    5.0,20.0,0.0,  !- X,Y,Z ==> Vertex 3 {m}
    5.0,20.0,3.0;  !- X,Y,Z ==> Vertex 4 {m}

  BuildingSurface:Detailed,
    Standard Floor,          !- Name
    Floor,                   !- Surface Type
    FLOOR SLAB 8 IN,         !- Construction Name
    Standard Zone,           !- Zone Name
    ,                        !- Space Name
    Surface,                 !- Outside Boundary Condition
    Standard Floor,          !- Outside Boundary Condition Object
    NoSun,                   !- Sun Exposure
    NoWind,                  !- Wind Exposure
    1.0,                     !- View Factor to Ground
    4,                       !- Number of Vertices
    0.0,0.0,0.0,  !- X,Y,Z ==> Vertex 1 {m}
    0.0,20.0,0.0,  !- X,Y,Z ==> Vertex 2 {m}
    5.0,20.0,0.0,  !- X,Y,Z ==> Vertex 3 {m}
    5.0,0.0,0.0;  !- X,Y,Z ==> Vertex 4 {m}

  BuildingSurface:Detailed,
    Standard Ceiling,        !- Name
    Roof,                    !- Surface Type
    ROOF,                    !- Construction Name
    Standard Zone,           !- Zone Name
    ,                        !- Space Name
    Outdoors,                !- Outside Boundary Condition
    ,                        !- Outside Boundary Condition Object
    SunExposed,              !- Sun Exposure
    WindExposed,             !- Wind Exposure
    0.0,                     !- View Factor to Ground
    4,                       !- Number of Vertices
    0.0,20.0,3.0,  !- X,Y,Z ==> Vertex 1 {m}
    0.0,0.0,3.0,  !- X,Y,Z ==> Vertex 2 {m}
    5.0,0.0,3.0,  !- X,Y,Z ==> Vertex 3 {m}
    5.0,20.0,3.0;  !- X,Y,Z ==> Vertex 4 {m}

  FenestrationSurface:Detailed,
    Standard Lower Window,   !- Name
    WINDOW,                  !- Surface Type
    Standard Window,         !- Construction Name
    Standard South Wall,     !- Building Surface Name
    ,                        !- Outside Boundary Condition Object
    0.5,                     !- View Factor to Ground
    ,                        !- Frame and Divider Name
    1.0,                     !- Multiplier
    4,                       !- Number of Vertices
    1.0,0.0,2.0,  !- X,Y,Z ==> Vertex 1 {m}
    1.0,0.0,1.0,  !- X,Y,Z ==> Vertex 2 {m}
    4.0,0.0,1.0,  !- X,Y,Z ==> Vertex 3 {m}
    4.0,0.0,2.0;  !- X,Y,Z ==> Vertex 4 {m}

  FenestrationSurface:Detailed,
    Standard Upper Window,   !- Name
    WINDOW,                  !- Surface Type
    Standard Window,         !- Construction Name
    Standard South Wall,     !- Building Surface Name
    ,                        !- Outside Boundary Condition Object
    0.5,                     !- View Factor to Ground
    ,                        !- Frame and Divider Name
    1.0,                     !- Multiplier
    4,                       !- Number of Vertices
    1.0,0.0,2.8,  !- X,Y,Z ==> Vertex 1 {m}
    1.0,0.0,2.0,  !- X,Y,Z ==> Vertex 2 {m}
    4.0,0.0,2.0,  !- X,Y,Z ==> Vertex 3 {m}
    4.0,0.0,2.8;  !- X,Y,Z ==> Vertex 4 {m}

  Zone,
    Daylit Zone,             !- Name
    0.0,                     !- Direction of Relative North {deg}
    0.0,                     !- X Origin {m}
    0.0,                     !- Y Origin {m}
    0.0,                     !- Z Origin {m}
    1,                       !- Type
    1,                       !- Multiplier
    autocalculate,           !- Ceiling Height {m}
    autocalculate;           !- Volume {m3}

  BuildingSurface:Detailed,
    Daylit South Wall,       !- Name
    Wall,                    !- Surface Type
    EXTWALL80,               !- Construction Name
    Daylit Zone,             !- Zone Name
    ,                        !- Space Name
    Outdoors,                !- Outside Boundary Condition
    ,                        !- Outside Boundary Condition Object
    SunExposed,              !- Sun Exposure
    WindExposed,             !- Wind Exposure
    0.5,                     !- View Factor to Ground
    4,                       !- Number of Vertices
    0.0,0.0,3.0,  !- X,Y,Z ==> Vertex 1 {m}
    0.0,0.0,0.0,  !- X,Y,Z ==> Vertex 2 {m}
    5.0,0.0,0.0,  !- X,Y,Z ==> Vertex 3 {m}
    5.0,0.0,3.0;  !- X,Y,Z ==> Vertex 4 {m}

  BuildingSurface:Detailed,
    Daylit West Wall,        !- Name
    Wall,                    !- Surface Type
    EXTWALL80,               !- Construction Name
    Daylit Zone,             !- Zone Name
    ,                        !- Space Name
    Outdoors,                !- Outside Boundary Condition
    ,                        !- Outside Boundary Condition Object
    SunExposed,              !- Sun Exposure
    WindExposed,             !- Wind Exposure
    0.5,                     !- View Factor to Ground
    4,                       !- Number of Vertices
    0.0,20.0,3.0,  !- X,Y,Z ==> Vertex 1 {m}
    0.0,20.0,0.0,  !- X,Y,Z ==> Vertex 2 {m}
    0.0,0.0,0.0,  !- X,Y,Z ==> Vertex 3 {m}
    0.0,0.0,3.0;  !- X,Y,Z ==> Vertex 4 {m}

  BuildingSurface:Detailed,
    Daylit North Wall,       !- Name
    Wall,                    !- Surface Type
    EXTWALL80,               !- Construction Name
    Daylit Zone,             !- Zone Name
    ,                        !- Space Name
    Outdoors,                !- Outside Boundary Condition
    ,                        !- Outside Boundary Condition Object
    SunExposed,              !- Sun Exposure
    WindExposed,             !- Wind Exposure
    0.5,                     !- View Factor to Ground
    4,                       !- Number of Vertices
    5.0,20.0,3.0,  !- X,Y,Z ==> Vertex 1 {m}
    5.0,20.0,0.0,  !- X,Y,Z ==> Vertex 2 {m}
    0.0,20.0,0.0,  !- X,Y,Z ==> Vertex 3 {m}
    0.0,20.0,3.0;  !- X,Y,Z ==> Vertex 4 {m}

  BuildingSurface:Detailed,
    Daylit East Wall,        !- Name
    Wall,                    !- Surface Type
    EXTWALL80,               !- Construction Name
    Daylit Zone,             !- Zone Name
    ,                        !- Space Name
    Outdoors,                !- Outside Boundary Condition
    ,                        !- Outside Boundary Condition Object
    SunExposed,              !- Sun Exposure
    WindExposed,             !- Wind Exposure
    0.5,                     !- View Factor to Ground
    4,                       !- Number of Vertices
    5.0,0.0,3.0,  !- X,Y,Z ==> Vertex 1 {m}
    5.0,0.0,0.0,  !- X,Y,Z ==> Vertex 2 {m}
    5.0,20.0,0.0,  !- X,Y,Z ==> Vertex 3 {m}
    5.0,20.0,3.0;  !- X,Y,Z ==> Vertex 4 {m}

  BuildingSurface:Detailed,
    Daylit Floor,            !- Name
    Floor,                   !- Surface Type
    FLOOR SLAB 8 IN,         !- Construction Name
    Daylit Zone,             !- Zone Name
    ,                        !- Space Name
    Surface,                 !- Outside Boundary Condition
    Daylit Floor,            !- Outside Boundary Condition Object
    NoSun,                   !- Sun Exposure
    NoWind,                  !- Wind Exposure
    1.0,                     !- View Factor to Ground
    4,                       !- Number of Vertices
    0.0,0.0,0.0,  !- X,Y,Z ==> Vertex 1 {m}
    0.0,20.0,0.0,  !- X,Y,Z ==> Vertex 2 {m}
    5.0,20.0,0.0,  !- X,Y,Z ==> Vertex 3 {m}
    5.0,0.0,0.0;  !- X,Y,Z ==> Vertex 4 {m}

  BuildingSurface:Detailed,
    Daylit Ceiling,          !- Name
    Roof,                    !- Surface Type
    ROOF,                    !- Construction Name
    Daylit Zone,             !- Zone Name
    ,                        !- Space Name
    Outdoors,                !- Outside Boundary Condition
    ,                        !- Outside Boundary Condition Object
    SunExposed,              !- Sun Exposure
    WindExposed,             !- Wind Exposure
    0.0,                     !- View Factor to Ground
    4,                       !- Number of Vertices
    0.0,20.0,3.0,  !- X,Y,Z ==> Vertex 1 {m}
    0.0,0.0,3.0,  !- X,Y,Z ==> Vertex 2 {m}
    5.0,0.0,3.0,  !- X,Y,Z ==> Vertex 3 {m}
    5.0,20.0,3.0;  !- X,Y,Z ==> Vertex 4 {m}

  FenestrationSurface:Detailed,
    Daylit Lower Window,     !- Name
    WINDOW,                  !- Surface Type
    Standard Window,         !- Construction Name
    Daylit South Wall,       !- Building Surface Name
    ,                        !- Outside Boundary Condition Object
    0.5,                     !- View Factor to Ground
    ,                        !- Frame and Divider Name
    1.0,                     !- Multiplier
    4,                       !- Number of Vertices
    1.0,0.0,2.0,  !- X,Y,Z ==> Vertex 1 {m}
    1.0,0.0,1.0,  !- X,Y,Z ==> Vertex 2 {m}
    4.0,0.0,1.0,  !- X,Y,Z ==> Vertex 3 {m}
    4.0,0.0,2.0;  !- X,Y,Z ==> Vertex 4 {m}

  DaylightingDevice:Shelf,
    Shelf,                   !- Name
    Daylit Upper Window,     !- Window Name
    Inside Shelf,            !- Inside Shelf Name
    Outside Shelf,           !- Outside Shelf Name
    Shelf;                   !- Outside Shelf Construction Name

  FenestrationSurface:Detailed,
    Daylit Upper Window,     !- Name
    WINDOW,                  !- Surface Type
    Standard Window,         !- Construction Name
    Daylit South Wall,       !- Building Surface Name
    ,                        !- Outside Boundary Condition Object
    0.211,                   !- View Factor to Ground
    ,                        !- Frame and Divider Name
    1.0,                     !- Multiplier
    4,                       !- Number of Vertices
    1.0,0.0,2.8,  !- X,Y,Z ==> Vertex 1 {m}
    1.0,0.0,2.0,  !- X,Y,Z ==> Vertex 2 {m}
    4.0,0.0,2.0,  !- X,Y,Z ==> Vertex 3 {m}
    4.0,0.0,2.8;  !- X,Y,Z ==> Vertex 4 {m}

  BuildingSurface:Detailed,
    Inside Shelf,            !- Name
    WALL,                    !- Surface Type
    Shelf,                   !- Construction Name
    Daylit Zone,             !- Zone Name
    ,                        !- Space Name
    Surface,                 !- Outside Boundary Condition
    Inside Shelf,            !- Outside Boundary Condition Object
    NoSun,                   !- Sun Exposure
    NoWind,                  !- Wind Exposure
    0.0,                     !- View Factor to Ground
    4,                       !- Number of Vertices
    1.0,0.0,2.0,  !- X,Y,Z ==> Vertex 1 {m}
    4.0,0.0,2.0,  !- X,Y,Z ==> Vertex 2 {m}
    4.0,1.0,2.0,  !- X,Y,Z ==> Vertex 3 {m}
    1.0,1.0,2.0;  !- X,Y,Z ==> Vertex 4 {m}

  Shading:Zone:Detailed,
    Outside Shelf,           !- Name
    Daylit South Wall,       !- Base Surface Name
    ,                        !- Transmittance Schedule Name
    4,                       !- Number of Vertices
    1.0,0.0,2.0,  !- X,Y,Z ==> Vertex 1 {m}
    1.0,-1.0,2.0,  !- X,Y,Z ==> Vertex 2 {m}
    4.0,-1.0,2.0,  !- X,Y,Z ==> Vertex 3 {m}
    4.0,0.0,2.0;  !- X,Y,Z ==> Vertex 4 {m}

  Lights,
    Daylit Zone Lights 1,    !- Name
    Daylit Zone,             !- Zone or ZoneList or Space or SpaceList Name
    AlwaysOnSchedule,        !- Schedule Name
    LightingLevel,           !- Design Level Calculation Method
    800,                     !- Lighting Level {W}
    ,                        !- Watts per Zone Floor Area {W/m2}
    ,                        !- Watts per Person {W/person}
    0,                       !- Return Air Fraction
    0.40,                    !- Fraction Radiant
    0.20,                    !- Fraction Visible
    1.0,                     !- Fraction Replaceable
    GeneralLights;           !- End-Use Subcategory

  Lights,
    Standard Zone Lights 1,  !- Name
    Standard Zone,           !- Zone or ZoneList or Space or SpaceList Name
    AlwaysOnSchedule,        !- Schedule Name
    LightingLevel,           !- Design Level Calculation Method
    800,                     !- Lighting Level {W}
    ,                        !- Watts per Zone Floor Area {W/m2}
    ,                        !- Watts per Person {W/person}
    0,                       !- Return Air Fraction
    0.40,                    !- Fraction Radiant
    0.20,                    !- Fraction Visible
    1.0,                     !- Fraction Replaceable
    GeneralLights;           !- End-Use Subcategory

  Daylighting:Controls,
    Daylit Zone_DaylCtrl,    !- Name
    Daylit Zone,             !- Zone or Space Name
    SplitFlux,               !- Daylighting Method
    ,                        !- Availability Schedule Name
    Continuous,              !- Lighting Control Type
    0.3,                     !- Minimum Input Power Fraction for Continuous or ContinuousOff Dimming Control
    0.2,                     !- Minimum Light Output Fraction for Continuous or ContinuousOff Dimming Control
    ,                        !- Number of Stepped Control Steps
    1.0,                     !- Probability Lighting will be Reset When Needed in Manual Stepped Control
    Daylit Zone_DaylRefPt1,  !- Glare Calculation Daylighting Reference Point Name