! DaylightingDeviceTubular.idf
!
! Basic file description:
! This model consists of two separate buildings.  Both buildings are identical in geometry and construction.
! Both have a main zone with an attic zone above.  In one building the main zone is a daylit zone,
! illuminated by two tubular daylighting devices (TDDs) of different lengths with supplemental fluorescent
! lighting continuously dimmable to a controlled minimum setpoint.  In the other building the main zone is a
! "standard" zone, illuminated by fluorescent lighting alone.  Both zones are conditioned using ideal loads
! to compare differences in heating and cooling loads.
! Run:      2 design days.  Try other locations for effect of latitude on TDD performance.
! Building: Standard constructions.  Floors are partitions.  No windows.  No shading between buildings.
! Internal: Lights at approximately "normal" levels on 24 hour schedule.
! System:   Ideal Loads
! Plant:    None.
! FCW, 6/17/04: changed height for daylighting illuminance map from 0.0m to 0.8m to correspond
!               to reference point height

  Version,24.1;

  Building,
    Tubular Daylighting Device Example,  !- Name
    0.0,                     !- North Axis {deg}
    Suburbs,                 !- Terrain
    0.04,                    !- Loads Convergence Tolerance Value {W}
    0.04,                    !- Temperature Convergence Tolerance Value {deltaC}
    FullInteriorAndExterior, !- Solar Distribution
    25,                      !- Maximum Number of Warmup Days
    6;                       !- Minimum Number of Warmup Days

  Timestep,6;

  ShadowCalculation,
    PolygonClipping,         !- Shading Calculation Method
    Periodic,                !- Shading Calculation Update Frequency Method
    20;                      !- Shading Calculation Update Frequency

  HeatBalanceAlgorithm,ConductionTransferFunction;

  SurfaceConvectionAlgorithm:Inside,TARP;

  SurfaceConvectionAlgorithm:Outside,DOE-2;

  GlobalGeometryRules,
    UpperLeftCorner,         !- Starting Vertex Position
    CounterClockWise,        !- Vertex Entry Direction
    Relative;                !- Coordinate System

  Site:Location,
    CHICAGO_IL_USA_WMO_725300,  !- Name
    42.00,                   !- Latitude {deg}
    -87.88,                  !- Longitude {deg}
    -6.00,                   !- Time Zone {hr}
    190.00;                  !- Elevation {m}

 ! CHICAGO_IL_USA Annual Heating 99%, MaxDB=-17.3°C

  SizingPeriod:DesignDay,
    CHICAGO Ann Htg 99% Condns DB,  !- Name
    1,                       !- Month
    21,                      !- Day of Month
    WinterDesignDay,         !- Day Type
    -17.3,                   !- Maximum Dry-Bulb Temperature {C}
    0.0,                     !- Daily Dry-Bulb Temperature Range {deltaC}
    ,                        !- Dry-Bulb Temperature Range Modifier Type
    ,                        !- Dry-Bulb Temperature Range Modifier Day Schedule Name
    Wetbulb,                 !- Humidity Condition Type
    -17.3,                   !- Wetbulb or DewPoint at Maximum Dry-Bulb {C}
    ,                        !- Humidity Condition Day Schedule Name
    ,                        !- Humidity Ratio at Maximum Dry-Bulb {kgWater/kgDryAir}
    ,                        !- Enthalpy at Maximum Dry-Bulb {J/kg}
    ,                        !- Daily Wet-Bulb Temperature Range {deltaC}
    99063.,                  !- Barometric Pressure {Pa}
    4.9,                     !- Wind Speed {m/s}
    270,                     !- Wind Direction {deg}
    No,                      !- Rain Indicator
    No,                      !- Snow Indicator
    No,                      !- Daylight Saving Time Indicator
    ASHRAEClearSky,          !- Solar Model Indicator
    ,                        !- Beam Solar Day Schedule Name
    ,                        !- Diffuse Solar Day Schedule Name
    ,                        !- ASHRAE Clear Sky Optical Depth for Beam Irradiance (taub) {dimensionless}
    ,                        !- ASHRAE Clear Sky Optical Depth for Diffuse Irradiance (taud) {dimensionless}
    0.00;                    !- Sky Clearness

 ! CHICAGO_IL_USA Annual Cooling (DB=>MWB) 1%, MaxDB=31.5°C MWB=23°C

  SizingPeriod:DesignDay,
    CHICAGO Ann Clg 1% Condns DB=>MWB,  !- Name
    7,                       !- Month
    21,                      !- Day of Month
    SummerDesignDay,         !- Day Type
    31.5,                    !- Maximum Dry-Bulb Temperature {C}
    10.7,                    !- Daily Dry-Bulb Temperature Range {deltaC}
    ,                        !- Dry-Bulb Temperature Range Modifier Type
    ,                        !- Dry-Bulb Temperature Range Modifier Day Schedule Name
    Wetbulb,                 !- Humidity Condition Type
    23,                      !- Wetbulb or DewPoint at Maximum Dry-Bulb {C}
    ,                        !- Humidity Condition Day Schedule Name
    ,                        !- Humidity Ratio at Maximum Dry-Bulb {kgWater/kgDryAir}
    ,                        !- Enthalpy at Maximum Dry-Bulb {J/kg}
    ,                        !- Daily Wet-Bulb Temperature Range {deltaC}
    99063.,                  !- Barometric Pressure {Pa}
    5.3,                     !- Wind Speed {m/s}
    230,                     !- Wind Direction {deg}
    No,                      !- Rain Indicator
    No,                      !- Snow Indicator
    No,                      !- Daylight Saving Time Indicator
    ASHRAEClearSky,          !- Solar Model Indicator
    ,                        !- Beam Solar Day Schedule Name
    ,                        !- Diffuse Solar Day Schedule Name
    ,                        !- ASHRAE Clear Sky Optical Depth for Beam Irradiance (taub) {dimensionless}
    ,                        !- ASHRAE Clear Sky Optical Depth for Diffuse Irradiance (taud) {dimensionless}
    1.00;                    !- Sky Clearness

  RunPeriod,
    Run Period 1,            !- Name
    1,                       !- Begin Month
    1,                       !- Begin Day of Month
    ,                        !- Begin Year
    12,                      !- End Month
    31,                      !- End Day of Month
    ,                        !- End Year
    Tuesday,                 !- Day of Week for Start Day
    Yes,                     !- Use Weather File Holidays and Special Days
    Yes,                     !- Use Weather File Daylight Saving Period
    No,                      !- Apply Weekend Holiday Rule
    Yes,                     !- Use Weather File Rain Indicators
    Yes;                     !- Use Weather File Snow Indicators

  SimulationControl,
    NO,                      !- Do Zone Sizing Calculation
    NO,                      !- Do System Sizing Calculation
    NO,                      !- Do Plant Sizing Calculation
    YES,                     !- Run Simulation for Sizing Periods
    NO,                      !- Run Simulation for Weather File Run Periods
    No,                      !- Do HVAC Sizing Simulation for Sizing Periods
    1;                       !- Maximum Number of HVAC Sizing Simulation Passes

  Material,
    A1 - 1 IN STUCCO,        !- Name
    Smooth,                  !- Roughness
    2.5389841E-02,           !- Thickness {m}
    0.6918309,               !- Conductivity {W/m-K}
    1858.142,                !- Density {kg/m3}
    836.8,                   !- Specific Heat {J/kg-K}
    0.90,                    !- Thermal Absorptance
    0.92,                    !- Solar Absorptance
    0.92;                    !- Visible Absorptance

  Material,
    C4 - 4 IN COMMON BRICK,  !- Name
    Rough,                   !- Roughness
    0.1014984,               !- Thickness {m}
    0.7264224,               !- Conductivity {W/m-K}
    1922.216,                !- Density {kg/m3}
    836.8,                   !- Specific Heat {J/kg-K}
    0.90,                    !- Thermal Absorptance
    0.76,                    !- Solar Absorptance
    0.76;                    !- Visible Absorptance

  Material,
    E1 - 3 / 4 IN PLASTER OR GYP BOARD,  !- Name
    Smooth,                  !- Roughness
    1.9050000E-02,           !- Thickness {m}
    0.7264224,               !- Conductivity {W/m-K}
    1601.846,                !- Density {kg/m3}
    836.8,                   !- Specific Heat {J/kg-K}
    0.90,                    !- Thermal Absorptance
    0.92,                    !- Solar Absorptance
    0.92;                    !- Visible Absorptance

  Material,
    C6 - 8 IN CLAY TILE,     !- Name
    Smooth,                  !- Roughness
    0.2033016,               !- Thickness {m}
    0.5707605,               !- Conductivity {W/m-K}
    1121.292,                !- Density {kg/m3}
    836.8,                   !- Specific Heat {J/kg-K}
    0.90,                    !- Thermal Absorptance
    0.82,                    !- Solar Absorptance
    0.82;                    !- Visible Absorptance

  Material,
    C10 - 8 IN HW CONCRETE,  !- Name
    MediumRough,             !- Roughness
    0.2033016,               !- Thickness {m}
    1.729577,                !- Conductivity {W/m-K}
    2242.585,                !- Density {kg/m3}
    836.8,                   !- Specific Heat {J/kg-K}
    0.90,                    !- Thermal Absorptance
    0.65,                    !- Solar Absorptance
    0.65;                    !- Visible Absorptance

  Material,
    E2 - 1 / 2 IN SLAG OR STONE,  !- Name
    Rough,                   !- Roughness
    1.2710161E-02,           !- Thickness {m}
    1.435549,                !- Conductivity {W/m-K}
    881.0155,                !- Density {kg/m3}
    1673.6,                  !- Specific Heat {J/kg-K}
    0.90,                    !- Thermal Absorptance
    0.55,                    !- Solar Absorptance
    0.55;                    !- Visible Absorptance

  Material,
    E3 - 3 / 8 IN FELT AND MEMBRANE,  !- Name
    Rough,                   !- Roughness
    9.5402403E-03,           !- Thickness {m}
    0.1902535,               !- Conductivity {W/m-K}
    1121.292,                !- Density {kg/m3}
    1673.6,                  !- Specific Heat {J/kg-K}
    0.90,                    !- Thermal Absorptance
    0.75,                    !- Solar Absorptance
    0.75;                    !- Visible Absorptance

  Material,
    B5 - 1 IN DENSE INSULATION,  !- Name
    VeryRough,               !- Roughness
    2.5389841E-02,           !- Thickness {m}
    4.3239430E-02,           !- Conductivity {W/m-K}
    91.30524,                !- Density {kg/m3}
    836.8,                   !- Specific Heat {J/kg-K}
    0.90,                    !- Thermal Absorptance
    0.50,                    !- Solar Absorptance
    0.50;                    !- Visible Absorptance

  Material,
    C12 - 2 IN HW CONCRETE,  !- Name
    MediumRough,             !- Roughness
    5.0901599E-02,           !- Thickness {m}
    1.729577,                !- Conductivity {W/m-K}
    2242.585,                !- Density {kg/m3}
    836.8,                   !- Specific Heat {J/kg-K}
    0.90,                    !- Thermal Absorptance
    0.65,                    !- Solar Absorptance
    0.65;                    !- Visible Absorptance

  Material,
    ROOFING - ASPHALT SHINGLES,  !- Name
    VeryRough,               !- Roughness
    3.1999999E-03,           !- Thickness {m}
    2.9999999E-02,           !- Conductivity {W/m-K}
    1121.29,                 !- Density {kg/m3}
    830.0,                   !- Specific Heat {J/kg-K}
    0.90,                    !- Thermal Absorptance
    0.70,                    !- Solar Absorptance
    0.70;                    !- Visible Absorptance

  Material,
    BB46 - 5 / 8 IN PLYWOOD, !- Name
    Smooth,                  !- Roughness
    9.9999998E-03,           !- Thickness {m}
    0.110,                   !- Conductivity {W/m-K}
    544.62,                  !- Density {kg/m3}
    1210.0,                  !- Specific Heat {J/kg-K}
    0.90,                    !- Thermal Absorptance
    0.70,                    !- Solar Absorptance
    0.70;                    !- Visible Absorptance

  Material,
    INS - GLASS FIBER BONDED 3 IN,  !- Name
    VeryRough,               !- Roughness
    7.000E-02,               !- Thickness {m}
    2.9999999E-02,           !- Conductivity {W/m-K}
    96.11,                   !- Density {kg/m3}
    790.0,                   !- Specific Heat {J/kg-K}
    0.90,                    !- Thermal Absorptance
    0.50,                    !- Solar Absorptance
    0.50;                    !- Visible Absorptance

  WindowMaterial:Glazing,
    Clear Acrylic Plastic,   !- Name
    SpectralAverage,         !- Optical Data Type
    ,                        !- Window Glass Spectral Data Set Name
    0.003,                   !- Thickness {m}
    0.92,                    !- Solar Transmittance at Normal Incidence
    0.05,                    !- Front Side Solar Reflectance at Normal Incidence
    0.05,                    !- Back Side Solar Reflectance at Normal Incidence
    0.92,                    !- Visible Transmittance at Normal Incidence
    0.05,                    !- Front Side Visible Reflectance at Normal Incidence
    0.05,                    !- Back Side Visible Reflectance at Normal Incidence
    0.00,                    !- Infrared Transmittance at Normal Incidence
    0.90,                    !- Front Side Infrared Hemispherical Emissivity
    0.90,                    !- Back Side Infrared Hemispherical Emissivity
    0.90;                    !- Conductivity {W/m-K}

  WindowMaterial:Glazing,
    Diffusing Acrylic Plastic,  !- Name
    SpectralAverage,         !- Optical Data Type
    ,                        !- Window Glass Spectral Data Set Name
    0.0022,                  !- Thickness {m}
    0.90,                    !- Solar Transmittance at Normal Incidence
    0.08,                    !- Front Side Solar Reflectance at Normal Incidence
    0.08,                    !- Back Side Solar Reflectance at Normal Incidence
    0.90,                    !- Visible Transmittance at Normal Incidence
    0.08,                    !- Front Side Visible Reflectance at Normal Incidence
    0.08,                    !- Back Side Visible Reflectance at Normal Incidence
    0.00,                    !- Infrared Transmittance at Normal Incidence
    0.90,                    !- Front Side Infrared Hemispherical Emissivity
    0.90,                    !- Back Side Infrared Hemispherical Emissivity
    0.90;                    !- Conductivity {W/m-K}

  Material,
    Very High Reflectivity Surface,  !- Name
    Smooth,                  !- Roughness
    0.0005,                  !- Thickness {m}
    237,                     !- Conductivity {W/m-K}
    2702,                    !- Density {kg/m3}
    903,                     !- Specific Heat {J/kg-K}
    0.90,                    !- Thermal Absorptance
    0.05,                    !- Solar Absorptance
    0.05;                    !- Visible Absorptance

  Construction,
    EXTWALL80,               !- Name
    A1 - 1 IN STUCCO,        !- Outside Layer
    C4 - 4 IN COMMON BRICK,  !- Layer 2
    E1 - 3 / 4 IN PLASTER OR GYP BOARD;  !- Layer 3

  Construction,
    FLOOR SLAB 8 IN,         !- Name
    C10 - 8 IN HW CONCRETE;  !- Outside Layer

  Construction,
    ROOF,                    !- Name
    ROOFING - ASPHALT SHINGLES,  !- Outside Layer
    E3 - 3 / 8 IN FELT AND MEMBRANE,  !- Layer 2
    BB46 - 5 / 8 IN PLYWOOD; !- Layer 3

  Construction,
    CEILING IN ZONE,         !- Name
    INS - GLASS FIBER BONDED 3 IN,  !- Outside Layer
    E1 - 3 / 4 IN PLASTER OR GYP BOARD;  !- Layer 2

  Construction,
    CEILING IN ATTIC,        !- Name
    E1 - 3 / 4 IN PLASTER OR GYP BOARD,  !- Outside Layer
    INS - GLASS FIBER BONDED 3 IN;  !- Layer 2

  Construction,
    TDD Pipe,                !- Name
    Very High Reflectivity Surface;  !- Outside Layer

  Construction,
    TDD Dome,                !- Name
    Clear Acrylic Plastic;   !- Outside Layer

  Construction,
    TDD Diffuser,            !- Name
    Diffusing Acrylic Plastic;  !- Outside Layer

  Zone,
    Daylit Zone,             !- Name
    0.0,                     !- Direction of Relative North {deg}
    0.0,                     !- X Origin {m}
    0.0,                     !- Y Origin {m}
    0.0,                     !- Z Origin {m}
    1,                       !- Type
    1,                       !- Multiplier
    autocalculate,           !- Ceiling Height {m}
    autocalculate;           !- Volume {m3}

  BuildingSurface:Detailed,
    Daylit South Wall,       !- Name
    Wall,                    !- Surface Type
    EXTWALL80,               !- Construction Name
    Daylit Zone,             !- Zone Name
    ,                        !- Space Name
    Outdoors,                !- Outside Boundary Condition
    ,                        !- Outside Boundary Condition Object
    SunExposed,              !- Sun Exposure
    WindExposed,             !- Wind Exposure
    0.5,                     !- View Factor to Ground
    4,                       !- Number of Vertices
    0.0,0.0,2.5,  !- X,Y,Z ==> Vertex 1 {m}
    0.0,0.0,0.0,  !- X,Y,Z ==> Vertex 2 {m}
    5.0,0.0,0.0,  !- X,Y,Z ==> Vertex 3 {m}
    5.0,0.0,2.5;  !- X,Y,Z ==> Vertex 4 {m}

  BuildingSurface:Detailed,
    Daylit West Wall,        !- Name
    Wall,                    !- Surface Type
    EXTWALL80,               !- Construction Name
    Daylit Zone,             !- Zone Name
    ,                        !- Space Name
    Outdoors,                !- Outside Boundary Condition
    ,                        !- Outside Boundary Condition Object
    SunExposed,              !- Sun Exposure
    WindExposed,             !- Wind Exposure
    0.5,                     !- View Factor to Ground
    4,                       !- Number of Vertices
    0.0,10.0,2.5,  !- X,Y,Z ==> Vertex 1 {m}
    0.0,10.0,0.0,  !- X,Y,Z ==> Vertex 2 {m}
    0.0,0.0,0.0,  !- X,Y,Z ==> Vertex 3 {m}
    0.0,0.0,2.5;  !- X,Y,Z ==> Vertex 4 {m}

  BuildingSurface:Detailed,
    Daylit North Wall,       !- Name
    Wall,                    !- Surface Type
    EXTWALL80,               !- Construction Name
    Daylit Zone,             !- Zone Name
    ,                        !- Space Name
    Outdoors,                !- Outside Boundary Condition
    ,                        !- Outside Boundary Condition Object
    SunExposed,              !- Sun Exposure
    WindExposed,             !- Wind Exposure
    0.5,                     !- View Factor to Ground
    4,                       !- Number of Vertices
    5.0,10.0,2.5,  !- X,Y,Z ==> Vertex 1 {m}
    5.0,10.0,0.0,  !- X,Y,Z ==> Vertex 2 {m}
    0.0,10.0,0.0,  !- X,Y,Z ==> Vertex 3 {m}
    0.0,10.0,2.5;  !- X,Y,Z ==> Vertex 4 {m}

  BuildingSurface:Detailed,
    Daylit East Wall,        !- Name
    Wall,                    !- Surface Type
    EXTWALL80,               !- Construction Name
    Daylit Zone,             !- Zone Name
    ,                        !- Space Name
    Outdoors,                !- Outside Boundary Condition
    ,                        !- Outside Boundary Condition Object
    SunExposed,              !- Sun Exposure
    WindExposed,             !- Wind Exposure
    0.5,                     !- View Factor to Ground
    4,                       !- Number of Vertices
    5.0,0.0,2.5,  !- X,Y,Z ==> Vertex 1 {m}
    5.0,0.0,0.0,  !- X,Y,Z ==> Vertex 2 {m}
    5.0,10.0,0.0,  !- X,Y,Z ==> Vertex 3 {m}
    5.0,10.0,2.5;  !- X,Y,Z ==> Vertex 4 {m}

  BuildingSurface:Detailed,
    Daylit Floor,            !- Name
    Floor,                   !- Surface Type
    FLOOR SLAB 8 IN,         !- Construction Name
    Daylit Zone,             !- Zone Name
    ,                        !- Space Name
    Surface,                 !- Outside Boundary Condition
    Daylit Floor,            !- Outside Boundary Condition Object
    NoSun,                   !- Sun Exposure
    NoWind,                  !- Wind Exposure
    1.0,                     !- View Factor to Ground
    4,                       !- Number of Vertices
    0.0,0.0,0.0,  !- X,Y,Z ==> Vertex 1 {m}
    0.0,10.0,0.0,  !- X,Y,Z ==> Vertex 2 {m}
    5.0,10.0,0.0,  !- X,Y,Z ==> Vertex 3 {m}
    5.0,0.0,0.0;  !- X,Y,Z ==> Vertex 4 {m}

  BuildingSurface:Detailed,
    Daylit Ceiling,          !- Name
    Roof,                    !- Surface Type
    CEILING IN ZONE,         !- Construction Name
    Daylit Zone,             !- Zone Name
    ,                        !- Space Name
    Surface,                 !- Outside Boundary Condition
    Daylit Attic Floor,      !- Outside Boundary Condition Object
    NoSun,                   !- Sun Exposure
    NoWind,                  !- Wind Exposure
    0.0,                     !- View Factor to Ground
    4,                       !- Number of Vertices
    0.0,10.0,2.5,  !- X,Y,Z ==> Vertex 1 {m}
    0.0,0.0,2.5,  !- X,Y,Z ==> Vertex 2 {m}
    5.0,0.0,2.5,  !- X,Y,Z ==> Vertex 3 {m}
    5.0,10.0,2.5;  !- X,Y,Z ==> Vertex 4 {m}

  Zone,
    Daylit Attic Zone,       !- Name
    0.0,                     !- Direction of Relative North {deg}
    0.0,                     !- X Origin {m}
    0.0,                     !- Y Origin {m}
    0.0,                     !- Z Origin {m}
    1,                       !- Type
    1,                       !- Multiplier
    autocalculate,           !- Ceiling Height {m}
    autocalculate;           !- Volume {m3}

  BuildingSurface:Detailed,
    Daylit Attic South Wall, !- Name
    Wall,                    !- Surface Type
    EXTWALL80,               !- Construction Name
    Daylit Attic Zone,       !- Zone Name
    ,                        !- Space Name
    Outdoors,                !- Outside Boundary Condition
    ,                        !- Outside Boundary Condition Object
    SunExposed,              !- Sun Exposure
    WindExposed,             !- Wind Exposure
    0.5,                     !- View Factor to Ground
    4,                       !- Number of Vertices
    0.0,0.0,3.0,  !- X,Y,Z ==> Vertex 1 {m}
    0.0,0.0,2.5,  !- X,Y,Z ==> Vertex 2 {m}
    5.0,0.0,2.5,  !- X,Y,Z ==> Vertex 3 {m}
    5.0,0.0,3.0;  !- X,Y,Z ==> Vertex 4 {m}

  BuildingSurface:Detailed,
    Daylit Attic West Wall,  !- Name
    Wall,                    !- Surface Type
    EXTWALL80,               !- Construction Name
    Daylit Attic Zone,       !- Zone Name
    ,                        !- Space Name
    Outdoors,                !- Outside Boundary Condition
    ,                        !- Outside Boundary Condition Object
    SunExposed,              !- Sun Exposure
    WindExposed,             !- Wind Exposure
    0.5,                     !- View Factor to Ground
    4,                       !- Number of Vertices
    0.0,10.0,5.0,  !- X,Y,Z ==> Vertex 1 {m}
    0.0,10.0,2.5,  !- X,Y,Z ==> Vertex 2 {m}
    0.0,0.0,2.5,  !- X,Y,Z ==> Vertex 3 {m}
    0.0,0.0,3.0;  !- X,Y,Z ==> Vertex 4 {m}

  BuildingSurface:Detailed,
    Daylit Attic North Wall, !- Name
    Wall,                    !- Surface Type
    EXTWALL80,               !- Construction Name
    Daylit Attic Zone,       !- Zone Name
    ,                        !- Space Name
    Outdoors,                !- Outside Boundary Condition
    ,                        !- Outside Boundary Condition Object
    SunExposed,              !- Sun Exposure
    WindExposed,             !- Wind Exposure
    0.5,                     !- View Factor to Ground
    4,                       !- Number of Vertices
    5.0,10.0,5.0,  !- X,Y,Z ==> Vertex 1 {m}
    5.0,10.0,2.5,  !- X,Y,Z ==> Vertex 2 {m}
    0.0,10.0,2.5,  !- X,Y,Z ==> Vertex 3 {m}
    0.0,10.0,5.0;  !- X,Y,Z ==> Vertex 4 {m}

  BuildingSurface:Detailed,
    Daylit Attic East Wall,  !- Name
    Wall,                    !- Surface Type
    EXTWALL80,               !- Construction Name
    Daylit Attic Zone,       !- Zone Name
    ,                        !- Space Name
    Outdoors,                !- Outside Boundary Condition
    ,                        !- Outside Boundary Condition Object
    SunExposed,              !- Sun Exposure
    WindExposed,             !- Wind Exposure
    0.5,                     !- View Factor to Ground
    4,                       !- Number of Vertices
    5.0,0.0,3.0,  !- X,Y,Z ==> Vertex 1 {m}
    5.0,0.0,2.5,  !- X,Y,Z ==> Vertex 2 {m}
    5.0,10.0,2.5,  !- X,Y,Z ==> Vertex 3 {m}
    5.0,10.0,5.0;  !- X,Y,Z ==> Vertex 4 {m}

  BuildingSurface:Detailed,
    Daylit Attic Floor,      !- Name
    Floor,                   !- Surface Type
    CEILING IN ATTIC,        !- Construction Name
    Daylit Attic Zone,       !- Zone Name
    ,                        !- Space Name
    Surface,                 !- Outside Boundary Condition
    Daylit Ceiling,          !- Outside Boundary Condition Object
    NoSun,                   !- Sun Exposure
    NoWind,                  !- Wind Exposure
    0.0,                     !- View Factor to Ground
    4,                       !- Number of Vertices
    0.0,0.0,2.5,  !- X,Y,Z ==> Vertex 1 {m}
    0.0,10.0,2.5,  !- X,Y,Z ==> Vertex 2 {m}
    5.0,10.0,2.5,  !- X,Y,Z ==> Vertex 3 {m}
    5.0,0.0,2.5;  !- X,Y,Z ==> Vertex 4 {m}

  BuildingSurface:Detailed,
    Daylit Attic Roof,       !- Name
    Roof,                    !- Surface Type
    ROOF,                    !- Construction Name
    Daylit Attic Zone,       !- Zone Name
    ,                        !- Space Name
    Outdoors,                !- Outside Boundary Condition
    ,                        !- Outside Boundary Condition Object
    SunExposed,              !- Sun Exposure
    WindExposed,             !- Wind Exposure
    0.0,                     !- View Factor to Ground
    4,                       !- Number of Vertices
    0.0,10.0,5.0,  !- X,Y,Z ==> Vertex 1 {m}
    0.0,0.0,3.0,  !- X,Y,Z ==> Vertex 2 {m}
    5.0,0.0,3.0,  !- X,Y,Z ==> Vertex 3 {m}
    5.0,10.0,5.0;  !- X,Y,Z ==> Vertex 4 {m}

  Zone,
    Standard Zone,           !- Name
    0.0,                     !- Direction of Relative North {deg}
    50.0,                    !- X Origin {m}
    50.0,                    !- Y Origin {m}
    0.0,                     !- Z Origin {m}
    1,                       !- Type
    1,                       !- Multiplier
    autocalculate,           !- Ceiling Height {m}
    autocalculate;           !- Volume {m3}

  BuildingSurface:Detailed,
    Standard South Wall,     !- Name
    Wall,                    !- Surface Type
    EXTWALL80,               !- Construction Name
    Standard Zone,           !- Zone Name
    ,                        !- Space Name
    Outdoors,                !- Outside Boundary Condition
    ,                        !- Outside Boundary Condition Object
    SunExposed,              !- Sun Exposure
    WindExposed,             !- Wind Exposure
    0.5,                     !- View Factor to Ground
    4,                       !- Number of Vertices
    0.0,0.0,2.5,  !- X,Y,Z ==> Vertex 1 {m}
    0.0,0.0,0.0,  !- X,Y,Z ==> Vertex 2 {m}
    5.0,0.0,0.0,  !- X,Y,Z ==> Vertex 3 {m}
    5.0,0.0,2.5;  !- X,Y,Z ==> Vertex 4 {m}

  BuildingSurface:Detailed,
    Standard West Wall,      !- Name
    Wall,                    !- Surface Type
    EXTWALL80,               !- Construction Name
    Standard Zone,           !- Zone Name
    ,                        !- Space Name
    Outdoors,                !- Outside Boundary Condition
    ,                        !- Outside Boundary Condition Object
    SunExposed,              !- Sun Exposure
    WindExposed,             !- Wind Exposure
    0.5,                     !- View Factor to Ground
    4,                       !- Number of Vertices
    0.0,10.0,2.5,  !- X,Y,Z ==> Vertex 1 {m}
    0.0,10.0,0.0,  !- X,Y,Z ==> Vertex 2 {m}
    0.0,0.0,0.0,  !- X,Y,Z ==> Vertex 3 {m}
    0.0,0.0,2.5;  !- X,Y,Z ==> Vertex 4 {m}

  BuildingSurface:Detailed,
    Standard North Wall,     !- Name
    Wall,                    !- Surface Type
    EXTWALL80,               !- Construction Name
    Standard Zone,           !- Zone Name
    ,                        !- Space Name
    Outdoors,                !- Outside Boundary Condition
    ,                        !- Outside Boundary Condition Object
    SunExposed,              !- Sun Exposure
    WindExposed,             !- Wind Exposure
    0.5,                     !- View Factor to Ground
    4,                       !- Number of Vertices
    5.0,10.0,2.5,  !- X,Y,Z ==> Vertex 1 {m}
    5.0,10.0,0.0,  !- X,Y,Z ==> Vertex 2 {m}
    0.0,10.0,0.0,  !- X,Y,Z ==> Vertex 3 {m}
    0.0,10.0,2.5;  !- X,Y,Z ==> Vertex 4 {m}

  BuildingSurface:Detailed,
    Standard East Wall,      !- Name
    Wall,                    !- Surface Type
    EXTWALL80,               !- Construction Name
    Standard Zone,           !- Zone Name
    ,                        !- Space Name
    Outdoors,                !- Outside Boundary Condition
    ,                        !- Outside Boundary Condition Object
    SunExposed,              !- Sun Exposure
    WindExposed,             !- Wind Exposure
    0.5,                     !- View Factor to Ground
    4,                       !- Number of Vertices
    5.0,0.0,2.5,  !- X,Y,Z ==> Vertex 1 {m}
    5.0,0.0,0.0,  !- X,Y,Z ==> Vertex 2 {m}
    5.0,10.0,0.0,  !- X,Y,Z ==> Vertex 3 {m}
    5.0,10.0,2.5;  !- X,Y,Z ==> Vertex 4 {m}

  BuildingSurface:Detailed,
    Standard Floor,          !- Name
    Floor,                   !- Surface Type
    FLOOR SLAB 8 IN,         !- Construction Name
    Standard Zone,           !- Zone Name
    ,                        !- Space Name
    Surface,                 !- Outside Boundary Condition
    Standard Floor,          !- Outside Boundary Condition Object
    NoSun,                   !- Sun Exposure
    NoWind,                  !- Wind Exposure
    1.0,                     !- View Factor to Ground
    4,                       !- Number of Vertices
    0.0,0.0,0.0,  !- X,Y,Z ==> Vertex 1 {m}
    0.0,10.0,0.0,  !- X,Y,Z ==> Vertex 2 {m}
    5.0,10.0,0.0,  !- X,Y,Z ==> Vertex 3 {m}
    5.0,0.0,0.0;  !- X,Y,Z ==> Vertex 4 {m}
