! DElightCFSWindow.idf
! Basic file description: This is a daylighting calculation comparison
!                         between a DElight analytical CFS WINDOW aperture
!                         and the Detailed method for a standard window aperture.
! Building: Two identical zones are defined each with a single aperture in the south wall.
!   One zone hosts Daylighting:DElight input objects including an analytical CFS WINDOW aperture.
!   The other hosts Daylighting:Detailed input objects and a standard window aperture.
!   Building, Zone, Surface, and Window geometry was imported from an IFC data model.
!   IFC to IDF file generated by Client (Version 1.1.10a) to BSPro COM-Server (2x2.10) for EnergyPlus (Version 1.1.1 Release)
!   Imported  IFC File Schema     : FILE_SCHEMA (('IFC2X2_FINAL'));
!   Generated on: February 10, 2004: 18:01
!
! Internal: Electric lighting only (with dimming control)
!   The overhead electric lighting in both zones have continuous dimming control.
!   The zones each have two daylighting control points ("reference point") with
!   illuminance set points of 500 lux (about 50 footcandles).
!   The reference points are located at the center of the windows at depths of 1/3 and 2/3 of the zone, at desk height.
! Run:      1st week in April; 2 design days
! System:   Ideal Loads
! Plant:    None (simple ideal loads)

  Version,24.1;

  RunPeriod,
    Run Period 1,            !- Name
    4,                       !- Begin Month
    1,                       !- Begin Day of Month
    ,                        !- Begin Year
    4,                       !- End Month
    7,                       !- End Day of Month
    ,                        !- End Year
    ,                        !- Day of Week for Start Day
    ,                        !- Use Weather File Holidays and Special Days
    ,                        !- Use Weather File Daylight Saving Period
    ,                        !- Apply Weekend Holiday Rule
    ,                        !- Use Weather File Rain Indicators
    ;                        !- Use Weather File Snow Indicators

  Site:Location,
    Chicago,                 !- Name
    42.0,                    !- Latitude {deg}
    -88.0,                   !- Longitude {deg}
    -6,                      !- Time Zone {hr}
    186;                     !- Elevation {m}

  Site:GroundTemperature:BuildingSurface,18,18,18,18,18,18,18,18,18,18,18,18;

  SizingPeriod:DesignDay,
    Chicago ILLINOIS SUMMER, !- Name
    7,                       !- Month
    21,                      !- Day of Month
    SummerDesignDay,         !- Day Type
    32.77778,                !- Maximum Dry-Bulb Temperature {C}
    10.88889,                !- Daily Dry-Bulb Temperature Range {deltaC}
    ,                        !- Dry-Bulb Temperature Range Modifier Type
    ,                        !- Dry-Bulb Temperature Range Modifier Day Schedule Name
    Wetbulb,                 !- Humidity Condition Type
    23.33333,                !- Wetbulb or DewPoint at Maximum Dry-Bulb {C}
    ,                        !- Humidity Condition Day Schedule Name
    ,                        !- Humidity Ratio at Maximum Dry-Bulb {kgWater/kgDryAir}
    ,                        !- Enthalpy at Maximum Dry-Bulb {J/kg}
    ,                        !- Daily Wet-Bulb Temperature Range {deltaC}
    99433.54,                !- Barometric Pressure {Pa}
    3.8,                     !- Wind Speed {m/s}
    213,                     !- Wind Direction {deg}
    No,                      !- Rain Indicator
    No,                      !- Snow Indicator
    No,                      !- Daylight Saving Time Indicator
    ASHRAEClearSky,          !- Solar Model Indicator
    ,                        !- Beam Solar Day Schedule Name
    ,                        !- Diffuse Solar Day Schedule Name
    ,                        !- ASHRAE Clear Sky Optical Depth for Beam Irradiance (taub) {dimensionless}
    ,                        !- ASHRAE Clear Sky Optical Depth for Diffuse Irradiance (taud) {dimensionless}
    0.98;                    !- Sky Clearness

  SizingPeriod:DesignDay,
    Chicago ILLINOIS WINTER, !- Name
    1,                       !- Month
    21,                      !- Day of Month
    WinterDesignDay,         !- Day Type
    -21.11111,               !- Maximum Dry-Bulb Temperature {C}
    0.0,                     !- Daily Dry-Bulb Temperature Range {deltaC}
    ,                        !- Dry-Bulb Temperature Range Modifier Type
    ,                        !- Dry-Bulb Temperature Range Modifier Day Schedule Name
    Wetbulb,                 !- Humidity Condition Type
    -21.11111,               !- Wetbulb or DewPoint at Maximum Dry-Bulb {C}
    ,                        !- Humidity Condition Day Schedule Name
    ,                        !- Humidity Ratio at Maximum Dry-Bulb {kgWater/kgDryAir}
    ,                        !- Enthalpy at Maximum Dry-Bulb {J/kg}
    ,                        !- Daily Wet-Bulb Temperature Range {deltaC}
    99782.25,                !- Barometric Pressure {Pa}
    11.6,                    !- Wind Speed {m/s}
    326,                     !- Wind Direction {deg}
    No,                      !- Rain Indicator
    No,                      !- Snow Indicator
    No,                      !- Daylight Saving Time Indicator
    ASHRAEClearSky,          !- Solar Model Indicator
    ,                        !- Beam Solar Day Schedule Name
    ,                        !- Diffuse Solar Day Schedule Name
    ,                        !- ASHRAE Clear Sky Optical Depth for Beam Irradiance (taub) {dimensionless}
    ,                        !- ASHRAE Clear Sky Optical Depth for Diffuse Irradiance (taud) {dimensionless}
    0.5;                     !- Sky Clearness

  SimulationControl,
    No,                      !- Do Zone Sizing Calculation
    No,                      !- Do System Sizing Calculation
    No,                      !- Do Plant Sizing Calculation
    Yes,                     !- Run Simulation for Sizing Periods
    Yes,                     !- Run Simulation for Weather File Run Periods
    No,                      !- Do HVAC Sizing Simulation for Sizing Periods
    1;                       !- Maximum Number of HVAC Sizing Simulation Passes

! MATERIALs

  Material,
    A3 - STEEL SIDING,       !- Name
    Smooth,                  !- Roughness
    1.5000000E-03,           !- Thickness {m}
    44.96000,                !- Conductivity {W/m-K}
    7688.860,                !- Density {kg/m3}
    410.0000,                !- Specific Heat {J/kg-K}
    0.9000000,               !- Thermal Absorptance
    0.2000000,               !- Solar Absorptance
    0.2000000;               !- Visible Absorptance

  Material,
    AC03 Acoustic Tile 3/4 in,  !- Name
    MediumSmooth,            !- Roughness
    1.9099999E-02,           !- Thickness {m}
    5.7000000E-02,           !- Conductivity {W/m-K}
    288.0000,                !- Density {kg/m3}
    1339.000,                !- Specific Heat {J/kg-K}
    0.9000000,               !- Thermal Absorptance
    0.7000000,               !- Solar Absorptance
    0.7000000;               !- Visible Absorptance

  Material,
    GP02 Gyps or Plast Brd 5/8 in,  !- Name
    MediumSmooth,            !- Roughness
    1.5900001E-02,           !- Thickness {m}
    0.1600000,               !- Conductivity {W/m-K}
    801.0000,                !- Density {kg/m3}
    837.0000,                !- Specific Heat {J/kg-K}
    0.9000000,               !- Thermal Absorptance
    0.7500000,               !- Solar Absorptance
    0.7500000;               !- Visible Absorptance

  Material,
    C5 - 4 IN HW CONCRETE,   !- Name
    MediumRough,             !- Roughness
    0.1014984,               !- Thickness {m}
    1.729577,                !- Conductivity {W/m-K}
    2242.585,                !- Density {kg/m3}
    836.8000,                !- Specific Heat {J/kg-K}
    0.9000000,               !- Thermal Absorptance
    0.6500000,               !- Solar Absorptance
    0.6500000;               !- Visible Absorptance

  Material,
    C13 - 6 IN HW CONCRETE,  !- Name
    MediumRough,             !- Roughness
    0.1500000,               !- Thickness {m}
    1.720000,                !- Conductivity {W/m-K}
    2242.580,                !- Density {kg/m3}
    830.0000,                !- Specific Heat {J/kg-K}
    0.9000000,               !- Thermal Absorptance
    0.6500000,               !- Solar Absorptance
    0.6500000;               !- Visible Absorptance

  Material,
    CB52 - 6 IN MW CONCRETE / PERLITE CBLK,  !- Name
    MediumRough,             !- Roughness
    0.1500000,               !- Thickness {m}
    0.3900000,               !- Conductivity {W/m-K}
    1345.550,                !- Density {kg/m3}
    830.0000,                !- Specific Heat {J/kg-K}
    0.9000000,               !- Thermal Absorptance
    0.2000000,               !- Solar Absorptance
    0.2000000;               !- Visible Absorptance

  Material,
    CLAY TILE 2 CELL - 10 IN,!- Name
    Smooth,                  !- Roughness
    0.2500000,               !- Thickness {m}
    0.6300000,               !- Conductivity {W/m-K}
    1121.290,                !- Density {kg/m3}
    830.0000,                !- Specific Heat {J/kg-K}
    0.9000000,               !- Thermal Absorptance
    0.6300000,               !- Solar Absorptance
    0.6300000;               !- Visible Absorptance

  Material:NoMass,
    BOARD INSULATION,        !- Name
    Rough,                   !- Roughness
    0.1700000,               !- Thermal Resistance {m2-K/W}
    0.9000000,               !- Thermal Absorptance
    0.7500000,               !- Solar Absorptance
    0.7500000;               !- Visible Absorptance

  Material,
    WOOD - SOFT 4MM,         !- Name
    MediumSmooth,            !- Roughness
    4.0000000E-02,           !- Thickness {m}
    0.115,                   !- Conductivity {W/m-K}
    51.25900,                !- Density {kg/m3}
    1381.8000,               !- Specific Heat {J/kg-K}
    0.9000000,               !- Thermal Absorptance
    0.3200000,               !- Solar Absorptance
    0.3200000;               !- Visible Absorptance

  WindowMaterial:Glazing,
    GLASS - CLEAR SHEET 1 / 8 IN,  !- Name
    SpectralAverage,         !- Optical Data Type
    ,                        !- Window Glass Spectral Data Set Name
    0.003,                   !- Thickness {m}
    0.850,                   !- Solar Transmittance at Normal Incidence
    0.075,                   !- Front Side Solar Reflectance at Normal Incidence
    0.075,                   !- Back Side Solar Reflectance at Normal Incidence
    0.901,                   !- Visible Transmittance at Normal Incidence
    0.081,                   !- Front Side Visible Reflectance at Normal Incidence
    0.081,                   !- Back Side Visible Reflectance at Normal Incidence
    0.0,                     !- Infrared Transmittance at Normal Incidence
    0.84,                    !- Front Side Infrared Hemispherical Emissivity
    0.84,                    !- Back Side Infrared Hemispherical Emissivity
    0.9;                     !- Conductivity {W/m-K}

  WindowMaterial:Gas,
    AirGap - AIRSPACE RESISTANCE,  !- Name
    AIR,                     !- Gas Type
    1.2500000E-02;           !- Thickness {m}

! CONSTRUCTIONs

  Construction,
    EXTERIOR,                !- Name
    A3 - STEEL SIDING,       !- Outside Layer
    CB52 - 6 IN MW CONCRETE / PERLITE CBLK,  !- Layer 2
    BOARD INSULATION,        !- Layer 3
    GP02 Gyps or Plast Brd 5/8 in;  !- Layer 4

  Construction,
    INTERIOR,                !- Name
    GP02 Gyps or Plast Brd 5/8 in,  !- Outside Layer
    CB52 - 6 IN MW CONCRETE / PERLITE CBLK,  !- Layer 2
    GP02 Gyps or Plast Brd 5/8 in;  !- Layer 3

  Construction,
    FLOORSLAB,               !- Name
    BOARD INSULATION,        !- Outside Layer
    C13 - 6 IN HW CONCRETE,  !- Layer 2
    CLAY TILE 2 CELL - 10 IN;!- Layer 3

  Construction,
    ROOFSLAB,                !- Name
    BOARD INSULATION,        !- Outside Layer
    C5 - 4 IN HW CONCRETE;   !- Layer 2

  Construction,
    DOUBLE PANE WINDOW,      !- Name
    GLASS - CLEAR SHEET 1 / 8 IN,  !- Outside Layer
    AirGap - AIRSPACE RESISTANCE,  !- Layer 2
    GLASS - CLEAR SHEET 1 / 8 IN;  !- Layer 3

!Schedules

  ScheduleTypeLimits,
    Any Number;              !- Name

  ScheduleTypeLimits,
    Temperature,             !- Name
    -60,                     !- Lower Limit Value
    200,                     !- Upper Limit Value
    CONTINUOUS,              !- Numeric Type
    Temperature;             !- Unit Type

  ScheduleTypeLimits,
    Control Type,            !- Name
    0,                       !- Lower Limit Value
    4,                       !- Upper Limit Value
    DISCRETE;                !- Numeric Type

  Schedule:Compact,
    BLDG Sch   3,            !- Name
    Any Number,              !- Schedule Type Limits Name
    Through: 12/31,          !- Field 1
    For: Weekdays,           !- Field 2
    Until:  6:00,0.05,       !- Field 3
    Until:  7:00,0.20,       !- Field 5
    Until: 17:00,1.00,       !- Field 7
    Until: 24:00,0.05,       !- Field 9
    For: Weekends Holidays,  !- Field 11
    Until: 24:00,0.05,       !- Field 12
    For: AllOtherDays,       !- Field 14
    Until: 24:00,0.05;       !- Field 15

  Schedule:Compact,
    Heating Setpoints,       !- Name
    Temperature,             !- Schedule Type Limits Name
    Through: 12/31,          !- Field 1
    For: AllDays,            !- Field 2
    Until:  7:00,15.,        !- Field 3
    Until: 17:00,20.,        !- Field 5
    Until: 24:00,15.;        !- Field 7

  Schedule:Compact,
    Cooling Setpoints,       !- Name
    Temperature,             !- Schedule Type Limits Name
    Through: 12/31,          !- Field 1
    For: AllDays,            !- Field 2
    Until:  7:00,30.,        !- Field 3
    Until: 20:00,23.,        !- Field 5
    Until: 24:00,30.;        !- Field 7

  Schedule:Compact,
    Zone Control Type Sched, !- Name
    Control Type,            !- Schedule Type Limits Name
    Through: 3/31,           !- Field 1
    For: AllDays,            !- Field 2
    Until: 24:00,1,          !- Field 3
    Through: 9/30,           !- Field 5
    For: AllDays,            !- Field 6
    Until: 24:00,2,          !- Field 7
    Through: 12/31,          !- Field 9
    For: AllDays,            !- Field 10
    Until: 24:00,1;          !- Field 11

  Timestep,4;

  HeatBalanceAlgorithm,ConductionTransferFunction;

  SurfaceConvectionAlgorithm:Inside,Simple;

  SurfaceConvectionAlgorithm:Outside,SimpleCombined;

  ShadowCalculation,
    PolygonClipping,         !- Shading Calculation Method
    Periodic,                !- Shading Calculation Update Frequency Method
    20;                      !- Shading Calculation Update Frequency

  GlobalGeometryRules,
    UpperLeftCorner,         !- Starting Vertex Position
    CounterClockWise,        !- Vertex Entry Direction
    World;                   !- Coordinate System

  Building,
    Bldg0,                   !- Name
    0.0,                     !- North Axis {deg}
    Suburbs,                 !- Terrain
    3.9999999E-02,           !- Loads Convergence Tolerance Value {W}
    0.4000000,               !- Temperature Convergence Tolerance Value {deltaC}
    MinimalShadowing,        !- Solar Distribution
    25,                      !- Maximum Number of Warmup Days
    6;                       !- Minimum Number of Warmup Days

! =========== ZONE Object List ===========

  Zone,
    1fNY1vx3jAvesY6geZTgIV,  !- Name
    0.0,                     !- Direction of Relative North {deg}
    0.0,                     !- X Origin {m}
    0.0,                     !- Y Origin {m}
    0.0,                     !- Z Origin {m}
    1,                       !- Type
    1,                       !- Multiplier
    2.43840,                 !- Ceiling Height {m}
    autocalculate;           !- Volume {m3}

  Zone,
    3i2eFc1ofBz80jvIMxrXvL,  !- Name
    0.0,                     !- Direction of Relative North {deg}
    0.0,                     !- X Origin {m}
    0.0,                     !- Y Origin {m}
    0.0,                     !- Z Origin {m}
    1,                       !- Type
    1,                       !- Multiplier
    2.43840,                 !- Ceiling Height {m}
    autocalculate;           !- Volume {m3}

!  Daylighting:DELight:Controls,
!    DElight Zone,           !- Name
!    3i2eFc1ofBz80jvIMxrXvL, !- Zone Name
!    1,                      !- Lighting Control Type
!    0.3,                    !- Minimum Input Power Fraction for Continuous Dimming Control
!    0.2,                    !- Minimum Light Output Fraction for Continuous Dimming Control
!    0,                      !- Number of Stepped Control Steps
!    1.0,                    !- Probability Lighting will be Reset When Needed in Manual Stepped Control
!    0.5;                    !- Gridding Resolution {m2}

  Daylighting:Controls,
    DElight Zone,            !- Name
    3i2eFc1ofBz80jvIMxrXvL,  !- Zone or Space Name
    DElight,                 !- Daylighting Method
    ,                        !- Availability Schedule Name
    Continuous,              !- Lighting Control Type
    0.3,                     !- Minimum Input Power Fraction for Continuous or ContinuousOff Dimming Control
    0.2,                     !- Minimum Light Output Fraction for Continuous or ContinuousOff Dimming Control
    ,                        !- Number of Stepped Control Steps
    1.0,                     !- Probability Lighting will be Reset When Needed in Manual Stepped Control
    ,                        !- Glare Calculation Daylighting Reference Point Name
    0,                       !- Glare Calculation Azimuth Angle of View Direction Clockwise from Zone y-Axis {deg}
    ,                        !- Maximum Allowable Discomfort Glare Index
    0.5,                     !- DElight Gridding Resolution {m2}
    RefPt 1,                 !- Daylighting Reference Point 1 Name
    0.5,                     !- Fraction of Lights Controlled by Reference Point 1
    500.,                    !- Illuminance Setpoint at Reference Point 1 {lux}
    RefPt 2,                 !- Daylighting Reference Point 2 Name
    0.5,                     !- Fraction of Lights Controlled by Reference Point 2
    500.;                    !- Illuminance Setpoint at Reference Point 2 {lux}

!  Daylighting:DELight:ReferencePoint,
!    RefPt 1,                !- Name
!    DElight Zone,           !- DElight Name
!    2.309,                  !- X-coordinate of Reference Point {m}
!    1.4224,                 !- Y-coordinate of Reference Point {m}
!    0.9,                    !- Z-coordinate of Reference Point {m}
!    0.5,                    !- Fraction of Zone Controlled by Reference Point
!    500.;                   !- Illuminance Setpoint at Reference Point {lux}

  Daylighting:ReferencePoint,
    RefPt 1,                 !- Name
    3i2eFc1ofBz80jvIMxrXvL,  !- Zone or Space Name
    2.309,                   !- X-Coordinate of Reference Point {m}
    1.4224,                  !- Y-Coordinate of Reference Point {m}
    0.9;                     !- Z-Coordinate of Reference Point {m}

!  Daylighting:DELight:ReferencePoint,
!    RefPt 2,                !- Name
!    DElight Zone,           !- DElight Name
!    2.309,                  !- X-coordinate of Reference Point {m}
!    2.8448,                 !- Y-coordinate of Reference Point {m}
!    0.9,                    !- Z-coordinate of Reference Point {m}
!    0.5,                    !- Fraction of Zone Controlled by Reference Point
!    500.;                   !- Illuminance Setpoint at Reference Point {lux}

  Daylighting:ReferencePoint,
    RefPt 2,                 !- Name
    3i2eFc1ofBz80jvIMxrXvL,  !- Zone or Space Name
    2.309,                   !- X-Coordinate of Reference Point {m}
    2.8448,                  !- Y-Coordinate of Reference Point {m}
    0.9;                     !- Z-Coordinate of Reference Point {m}

  Daylighting:DELight:ComplexFenestration,
    Test CFS,                !- Name
    BTDF^GEN^WINDOW^1.0^20.0,!- Complex Fenestration Type
    3i2eFc1ofBz80jvIMxrXvL1KacGhEwLAJhAz_9iQZZ23>EWF0,  !- Building Surface Name
    Wndo1F03i2eFc1ofBz80jvIMxrXvL1KacGhEwLAJhAz_9iQZZ23>EWF0,  !- Window Name
    0.0;                     !- Fenestration Rotation {deg}

  Lights,
    3i2eFc1ofBz80jvIMxrXvL Lights 1,  !- Name
    3i2eFc1ofBz80jvIMxrXvL,  !- Zone or ZoneList or Space or SpaceList Name
    BLDG Sch   3,            !- Schedule Name
    LightingLevel,           !- Design Level Calculation Method
    1464.375,                !- Lighting Level {W}
    ,                        !- Watts per Zone Floor Area {W/m2}
    ,                        !- Watts per Person {W/person}
    0.0000000E+00,           !- Return Air Fraction
    0.2000000,               !- Fraction Radiant
    0.2000000,               !- Fraction Visible
    1.0,                     !- Fraction Replaceable
    GeneralLights;           !- End-Use Subcategory

  Daylighting:Controls,
    1fNY1vx3jAvesY6geZTgIV_DaylCtrl,  !- Name
    1fNY1vx3jAvesY6geZTgIV,  !- Zone or Space Name
    SplitFlux,               !- Daylighting Method
    ,                        !- Availability Schedule Name
    Continuous,              !- Lighting Control Type
    0.3,                     !- Minimum Input Power Fraction for Continuous or ContinuousOff Dimming Control
    0.2,                     !- Minimum Light Output Fraction for Continuous or ContinuousOff Dimming Control
    ,                        !- Number of Stepped Control Steps
    1.0,                     !- Probability Lighting will be Reset When Needed in Manual Stepped Control
    1fNY1vx3jAvesY6geZTgIV_DaylRefPt1,  !- Glare Calculation Daylighting Reference Point Name
    180.0,                   !- Glare Calculation Azimuth Angle of View Direction Clockwise from Zone y-Axis {deg}
    50.0,                    !- Maximum Allowable Discomfort Glare Index
    ,                        !- DElight Gridding Resolution {m2}
    1fNY1vx3jAvesY6geZTgIV_DaylRefPt1,  !- Daylighting Reference Point 1 Name
    0.5,                     !- Fraction of Lights Controlled by Reference Point 1
    500.,                    !- Illuminance Setpoint at Reference Point 1 {lux}
    1fNY1vx3jAvesY6geZTgIV_DaylRefPt2,  !- Daylighting Reference Point 2 Name
    0.5,                     !- Fraction of Lights Controlled by Reference Point 2
    500.;                    !- Illuminance Setpoint at Reference Point 2 {lux}

  Daylighting:ReferencePoint,
    1fNY1vx3jAvesY6geZTgIV_DaylRefPt1,  !- Name
    1fNY1vx3jAvesY6geZTgIV,  !- Zone or Space Name
    6.827,                   !- X-Coordinate of Reference Point {m}
    1.4224,                  !- Y-Coordinate of Reference Point {m}
    0.9;                     !- Z-Coordinate of Reference Point {m}

  Daylighting:ReferencePoint,
    1fNY1vx3jAvesY6geZTgIV_DaylRefPt2,  !- Name
    1fNY1vx3jAvesY6geZTgIV,  !- Zone or Space Name
    6.827,                   !- X-Coordinate of Reference Point {m}
    2.8448,                  !- Y-Coordinate of Reference Point {m}
    0.9;                     !- Z-Coordinate of Reference Point {m}

  Lights,
    1fNY1vx3jAvesY6geZTgIV Lights 1,  !- Name
    1fNY1vx3jAvesY6geZTgIV,  !- Zone or ZoneList or Space or SpaceList Name
    BLDG Sch   3,            !- Schedule Name
    LightingLevel,           !- Design Level Calculation Method
    1464.375,                !- Lighting Level {W}
    ,                        !- Watts per Zone Floor Area {W/m2}
    ,                        !- Watts per Person {W/person}
    0.0000000E+00,           !- Return Air Fraction
    0.2000000,               !- Fraction Radiant
    0.2000000,               !- Fraction Visible
    1.0,                     !- Fraction Replaceable
    GeneralLights;           !- End-Use Subcategory

! =========== Interior Thermal SURFACE Object List ===========
   ! Vertices in World Coordinate System, beginning in exterior upper left
   ! Surface Face Azimuth:    270.00000
   ! Surface Face Tilt:     90.00000
   ! Surface Face Area:     10.40514

  BuildingSurface:Detailed,
    1fNY1vx3jAvesY6geZTgIV3i2eFc1ofBz80jvIMxrXvL>O0>WF0,  !- Name
    WALL,                    !- Surface Type
    INTERIOR,                !- Construction Name
    1fNY1vx3jAvesY6geZTgIV,  !- Zone Name
    ,                        !- Space Name
    Surface,                 !- Outside Boundary Condition
    3i2eFc1ofBz80jvIMxrXvL1fNY1vx3jAvesY6geZTgIV>O0>WF0,  !- Outside Boundary Condition Object
    NoSun,                   !- Sun Exposure
    NoWind,                  !- Wind Exposure
    0.0000000,               !- View Factor to Ground
    4,                       !- Number of Vertices
    4.72440,4.4196,2.43840,  !- X,Y,Z ==> Vertex 1 {m}
    4.72440,4.4196,0.00000,  !- X,Y,Z ==> Vertex 2 {m}
    4.72440,-0.1524,0.00000,  !- X,Y,Z ==> Vertex 3 {m}
    4.72440,-0.1524,2.43840;  !- X,Y,Z ==> Vertex 4 {m}

   ! Vertices in World Coordinate System, beginning in exterior upper left

  BuildingSurface:Detailed,
    3i2eFc1ofBz80jvIMxrXvL1fNY1vx3jAvesY6geZTgIV>O0>WF0,  !- Name
    WALL,                    !- Surface Type
    INTERIOR,                !- Construction Name
    3i2eFc1ofBz80jvIMxrXvL,  !- Zone Name
    ,                        !- Space Name
    Surface,                 !- Outside Boundary Condition
    1fNY1vx3jAvesY6geZTgIV3i2eFc1ofBz80jvIMxrXvL>O0>WF0,  !- Outside Boundary Condition Object
    NoSun,                   !- Sun Exposure
    NoWind,                  !- Wind Exposure
    0.0000000,               !- View Factor to Ground
    4,                       !- Number of Vertices
    4.72440,-0.1524,2.43840,  !- X,Y,Z ==> Vertex 1 {m}
    4.72440,-0.1524,0.00000,  !- X,Y,Z ==> Vertex 2 {m}
    4.72440,4.4196,0.00000,  !- X,Y,Z ==> Vertex 3 {m}
    4.72440,4.4196,2.43840;  !- X,Y,Z ==> Vertex 4 {m}

! =========== Exterior Thermal SURFACE Object List ===========
   ! Vertices in World Coordinate System, beginning in exterior upper left
   ! Surface Face Azimuth:      0.00000
   ! Surface Face Tilt:     90.00000
   ! Surface Face Area:     10.40514

  BuildingSurface:Detailed,
    1fNY1vx3jAvesY6geZTgIV3BXETEK3b0y9mhtiI1pN8K>EWF0,  !- Name
    WALL,                    !- Surface Type
    EXTERIOR,                !- Construction Name
    1fNY1vx3jAvesY6geZTgIV,  !- Zone Name
    ,                        !- Space Name
    Outdoors,                !- Outside Boundary Condition
    ,                        !- Outside Boundary Condition Object
    SunExposed,              !- Sun Exposure
    WindExposed,             !- Wind Exposure
    0.5000000,               !- View Factor to Ground
    4,                       !- Number of Vertices
    9.2964,4.41960,2.43840,  !- X,Y,Z ==> Vertex 1 {m}
    9.2964,4.41960,0.00000,  !- X,Y,Z ==> Vertex 2 {m}
    4.7244,4.41960,0.00000,  !- X,Y,Z ==> Vertex 3 {m}
    4.7244,4.41960,2.43840;  !- X,Y,Z ==> Vertex 4 {m}

   ! Vertices in World Coordinate System, beginning in exterior upper left
   ! Surface Face Azimuth:     90.00000
   ! Surface Face Tilt:     90.00000
   ! Surface Face Area:     10.40514

  BuildingSurface:Detailed,
    1fNY1vx3jAvesY6geZTgIV3ggZ6C38z36AKq1tiHRHLz>EWF0,  !- Name
    WALL,                    !- Surface Type
    EXTERIOR,                !- Construction Name
    1fNY1vx3jAvesY6geZTgIV,  !- Zone Name
    ,                        !- Space Name
    Outdoors,                !- Outside Boundary Condition
    ,                        !- Outside Boundary Condition Object
    SunExposed,              !- Sun Exposure
    WindExposed,             !- Wind Exposure
    0.5000000,               !- View Factor to Ground
    4,                       !- Number of Vertices
    9.29640,-0.1524,2.43840,  !- X,Y,Z ==> Vertex 1 {m}
    9.29640,-0.1524,0.00000,  !- X,Y,Z ==> Vertex 2 {m}
    9.29640,4.4196,0.00000,  !- X,Y,Z ==> Vertex 3 {m}
    9.29640,4.4196,2.43840;  !- X,Y,Z ==> Vertex 4 {m}

   ! Vertices in World Coordinate System, beginning in exterior upper left
   ! Surface Face Azimuth:    180.00000
   ! Surface Face Tilt:     90.00000
   ! Surface Face Area:     10.40514

  BuildingSurface:Detailed,
    1fNY1vx3jAvesY6geZTgIV1KacGhEwLAJhAz_9iQZZ23>EWF0,  !- Name
    WALL,                    !- Surface Type
    EXTERIOR,                !- Construction Name
    1fNY1vx3jAvesY6geZTgIV,  !- Zone Name
    ,                        !- Space Name
    Outdoors,                !- Outside Boundary Condition
    ,                        !- Outside Boundary Condition Object
    SunExposed,              !- Sun Exposure
    WindExposed,             !- Wind Exposure
    0.5000000,               !- View Factor to Ground
    4,                       !- Number of Vertices
    4.7244,-0.15240,2.43840,  !- X,Y,Z ==> Vertex 1 {m}
    4.7244,-0.15240,0.00000,  !- X,Y,Z ==> Vertex 2 {m}
    9.2964,-0.15240,0.00000,  !- X,Y,Z ==> Vertex 3 {m}
    9.2964,-0.15240,2.43840;  !- X,Y,Z ==> Vertex 4 {m}

   ! Opening Face Azimuth:    180.00000
   ! Opening Face Tilt:     90.00000
   ! Opening Face Area (BSPro):      1.39355

  FenestrationSurface:Detailed,
    Wndo0F01fNY1vx3jAvesY6geZTgIV1KacGhEwLAJhAz_9iQZZ23>EWF0,  !- Name
    WINDOW,                  !- Surface Type
    DOUBLE PANE WINDOW,      !- Construction Name
    1fNY1vx3jAvesY6geZTgIV1KacGhEwLAJhAz_9iQZZ23>EWF0,  !- Building Surface Name
    ,                        !- Outside Boundary Condition Object
    0.5,                     !- View Factor to Ground
    ,                        !- Frame and Divider Name
    1,                       !- Multiplier
    4,                       !- Number of Vertices
    6.065025079288,-0.152399999386,1.828800000000,  !- X,Y,Z ==> Vertex 1 {m}
    6.065025079288,-0.152399999386,0.914400000000,  !- X,Y,Z ==> Vertex 2 {m}
    7.589025079288,-0.152399999386,0.914400000000,  !- X,Y,Z ==> Vertex 3 {m}