!-Generator IDFEditor 1.34
!-Option OriginalOrderTop UseSpecialFormat
!-NOTE: All comments with '!-' are ignored by the IDFEditor and are generated automatically.
!-      Use '!' comments if they need to be retained when using the IDFEditor.
!
! DirectIndirectEvapCoolersVSAS.idf
! Basic file description:  1 story building divided into 4 zones.
!
! Highlights:              Single-zone DX packages with direct and indirect evaporative coolers on outdoor air path.
!
! Simulation Location/Run: PHOENIX AZ USA TMY2-23183, 2 design days, 2 run periods,
!                          Run Control executes the run periods using the weather file
!
! Location:                Phoenix, AZ
!
! Design Days:             PHOENIX_AZ_USA Heating 99.6%, MaxDB=   1.20 Wind Speed=   2.40 Wind Dir=  90.00
!                          PHOENIX_AZ_USA Cooling (WB=>MDB) .4%, MDB=  35.80 WB=  24.20
!
! Run Period (Weather File): 1/1 through 12/31, PHOENIX AZ USA TMY2-23183
!
! Run Control:             Zone and System sizing with weather file run control (no design days run)
!
! Building:
!
!
! Floor Area:        736.14 m2
! Number of Stories: 1
!
! Zone Description Details:       There are four zones.  Model was derived from a large model by removing
!                                 the upper stories leaving four of the five zones on the ground floor.
!
!
! Internal gains description:     lighting is 11.84 watts/m2, office equip is 17.8 watts/m2. There is 1 occupant
!                                 per 30 m2 of floor area. The infiltration varies around 0.1 air changes per hour.
!
! Interzone Surfaces:             Yes, some adiabatic
! Internal Mass:                  Yes
! People:                         1 per 30 m2
! Lights:                         11.84 W/m2
! Windows:                        U-5.78 (SI) and SHGC  of 0.623, 12 % WWR
!
! Doors:                          None
!
! Detached Shading:               None
! Daylight:                       None
! Natural Ventilation:            None
! Compact Schedules:              Yes
!
! HVAC:                           PSZ system with outside air, Uses UnitaryHeatCool with DX cooling coils and gas heat.
!                                 All equipment is autosized. Three of the outdoor air system include direct and indirect
!                                 evaporative coolers and one demonstrates just an direct cooler.  These are the
!                                 "ResearchSpecial" coolers that modulate to meet setpoints.
!
! Zonal Equipment:                AirTerminal:SingleDuct:Uncontrolled
! Central Air Handling Equipment: No.
! System Equipment Autosize:      Yes
! Purchased Cooling:              None
! Purchased Heating:              None
! Coils:                          Coil:Cooling:DX:VariableSpeed, Coil:Heating:Fuel
! Pumps:                          None
! Boilers:                        None
! Chillers:                       None
!
! Results:
! Standard Reports:               Yes
! Timestep or Hourly Variables:   Hourly
! Time bins Report:               None
! HTML Report:                    Yes, AnnualBuildingUtilityPerformanceSummary
! Environmental Emissions:        None
! Utility Tariffs:                None
!

  Version,24.1;

  AirLoopHVAC:UnitaryHeatCool,
    FURNACE_PACU_CAV:1_Unitary_Package,  !- Name
    ALWAYS_ON,               !- Availability Schedule Name
    FURNACE_PACU_CAV:1_OA-FURNACE_PACU_CAV:1_Unitary_PackageNode,  !- Unitary System Air Inlet Node Name
    FURNACE_PACU_CAV:1 Supply Equipment Outlet Node,  !- Unitary System Air Outlet Node Name
    AlWAYS_ON,               !- Supply Air Fan Operating Mode Schedule Name
    AUTOSIZE,                !- Maximum Supply Air Temperature {C}
    AUTOSIZE,                !- Cooling Supply Air Flow Rate {m3/s}
    AUTOSIZE,                !- Heating Supply Air Flow Rate {m3/s}
    AUTOSIZE,                !- No Load Supply Air Flow Rate {m3/s}
    units_gr_lf,             !- Controlling Zone or Thermostat Location
    Fan:OnOff,               !- Supply Fan Object Type
    FURNACE_PACU_CAV:1_Unitary_Package_fan,  !- Supply Fan Name
    BlowThrough,             !- Fan Placement
    Coil:Heating:Fuel,       !- Heating Coil Object Type
    FURNACE_PACU_CAV:1_Unitary_Package_HeatCoil,  !- Heating Coil Name
    Coil:Cooling:DX:VariableSpeed,  !- Cooling Coil Object Type
    FURNACE_PACU_CAV:1_Unitary_Package_CoolCoil,  !- Cooling Coil Name
    None;                    !- Dehumidification Control Type

  AirLoopHVAC:UnitaryHeatCool,
    FURNACE_PACU_CAV:2_Unitary_Package,  !- Name
    ALWAYS_ON,               !- Availability Schedule Name
    FURNACE_PACU_CAV:2_OA-FURNACE_PACU_CAV:2_Unitary_PackageNode,  !- Unitary System Air Inlet Node Name
    FURNACE_PACU_CAV:2 Supply Equipment Outlet Node,  !- Unitary System Air Outlet Node Name
    AlWAYS_ON,               !- Supply Air Fan Operating Mode Schedule Name
    AUTOSIZE,                !- Maximum Supply Air Temperature {C}
    AUTOSIZE,                !- Cooling Supply Air Flow Rate {m3/s}
    AUTOSIZE,                !- Heating Supply Air Flow Rate {m3/s}
    AUTOSIZE,                !- No Load Supply Air Flow Rate {m3/s}
    units_gr_rt,             !- Controlling Zone or Thermostat Location
    Fan:OnOff,               !- Supply Fan Object Type
    FURNACE_PACU_CAV:2_Unitary_Package_fan,  !- Supply Fan Name
    BlowThrough,             !- Fan Placement
    Coil:Heating:Fuel,       !- Heating Coil Object Type
    FURNACE_PACU_CAV:2_Unitary_Package_HeatCoil,  !- Heating Coil Name
    Coil:Cooling:DX:VariableSpeed,  !- Cooling Coil Object Type
    FURNACE_PACU_CAV:2_Unitary_Package_CoolCoil,  !- Cooling Coil Name
    None;                    !- Dehumidification Control Type

  AirLoopHVAC:UnitaryHeatCool,
    FURNACE_PACU_CAV:3_Unitary_Package,  !- Name
    ALWAYS_ON,               !- Availability Schedule Name
    FURNACE_PACU_CAV:3_OA-FURNACE_PACU_CAV:3_Unitary_PackageNode,  !- Unitary System Air Inlet Node Name
    FURNACE_PACU_CAV:3 Supply Equipment Outlet Node,  !- Unitary System Air Outlet Node Name
    AlWAYS_ON,               !- Supply Air Fan Operating Mode Schedule Name
    AUTOSIZE,                !- Maximum Supply Air Temperature {C}
    AUTOSIZE,                !- Cooling Supply Air Flow Rate {m3/s}
    AUTOSIZE,                !- Heating Supply Air Flow Rate {m3/s}
    AUTOSIZE,                !- No Load Supply Air Flow Rate {m3/s}
    unit_s_g,                !- Controlling Zone or Thermostat Location
    Fan:OnOff,               !- Supply Fan Object Type
    FURNACE_PACU_CAV:3_Unitary_Package_fan,  !- Supply Fan Name
    BlowThrough,             !- Fan Placement
    Coil:Heating:Fuel,       !- Heating Coil Object Type
    FURNACE_PACU_CAV:3_Unitary_Package_HeatCoil,  !- Heating Coil Name
    Coil:Cooling:DX:VariableSpeed,  !- Cooling Coil Object Type
    FURNACE_PACU_CAV:3_Unitary_Package_CoolCoil,  !- Cooling Coil Name
    None;                    !- Dehumidification Control Type

  AirLoopHVAC:UnitaryHeatCool,
    FURNACE_PACU_CAV:4_Unitary_Package,  !- Name
    ALWAYS_ON,               !- Availability Schedule Name
    FURNACE_PACU_CAV:4_OA-FURNACE_PACU_CAV:4_Unitary_PackageNode,  !- Unitary System Air Inlet Node Name
    FURNACE_PACU_CAV:4 Supply Equipment Outlet Node,  !- Unitary System Air Outlet Node Name
    AlWAYS_ON,               !- Supply Air Fan Operating Mode Schedule Name
    AUTOSIZE,                !- Maximum Supply Air Temperature {C}
    AUTOSIZE,                !- Cooling Supply Air Flow Rate {m3/s}
    AUTOSIZE,                !- Heating Supply Air Flow Rate {m3/s}
    AUTOSIZE,                !- No Load Supply Air Flow Rate {m3/s}
    unit_n_g,                !- Controlling Zone or Thermostat Location
    Fan:OnOff,               !- Supply Fan Object Type
    FURNACE_PACU_CAV:4_Unitary_Package_fan,  !- Supply Fan Name
    BlowThrough,             !- Fan Placement
    Coil:Heating:Fuel,       !- Heating Coil Object Type
    FURNACE_PACU_CAV:4_Unitary_Package_HeatCoil,  !- Heating Coil Name
    Coil:Cooling:DX:VariableSpeed,  !- Cooling Coil Object Type
    FURNACE_PACU_CAV:4_Unitary_Package_CoolCoil,  !- Cooling Coil Name
    None;                    !- Dehumidification Control Type

  Coil:Cooling:DX:VariableSpeed,
    FURNACE_PACU_CAV:1_Unitary_Package_CoolCoil,  !- Name
    FURNACE_PACU_CAV:1_Unitary_PackageCoolCoil air inlet,  !- Indoor Air Inlet Node Name
    FURNACE_PACU_CAV:1_Unitary_PackageHeatCoil air inlet,  !- Indoor Air Outlet Node Name
    10.0,                    !- Number of Speeds {dimensionless}
    10.0,                    !- Nominal Speed Level {dimensionless}
    AUTOSIZE,                !- Gross Rated Total Cooling Capacity At Selected Nominal Speed Level {W}
    AUTOSIZE,                !- Rated Air Flow Rate At Selected Nominal Speed Level {m3/s}
    0.0,                     !- Nominal Time for Condensate to Begin Leaving the Coil {s}
    0.0,                     !- Initial Moisture Evaporation Rate Divided by Steady-State AC Latent Capacity {dimensionless}
    ,                        !- Maximum Cycling Rate
    ,                        !- Latent Capacity Time Constant
    ,                        !- Fan Delay Time
    FURNACE_PACU_CAV:1_Unitary_PackagecoolPLR,  !- Energy Part Load Fraction Curve Name
    ,                        !- Condenser Air Inlet Node Name
    AirCooled,               !- Condenser Type
    ,                        !- Evaporative Condenser Pump Rated Power Consumption {W}
    200.0,                   !- Crankcase Heater Capacity {W}
    ,                        !- Crankcase Heater Capacity Function of Temperature Curve Name
    10.0,                    !- Maximum Outdoor Dry-Bulb Temperature for Crankcase Heater Operation {C}
    ,                        !- Minimum Outdoor Dry-Bulb Temperature for Compressor Operation {C}
    ,                        !- Supply Water Storage Tank Name
    ,                        !- Condensate Collection Water Storage Tank Name
    ,                        !- Basin Heater Capacity {W/K}
    ,                        !- Basin Heater Setpoint Temperature {C}
    ,                        !- Basin Heater Operating Schedule Name
    1524.1,                  !- Speed 1 Reference Unit Gross Rated Total Cooling Capacity {W}
    0.75,                    !- Speed 1 Reference Unit Gross Rated Sensible Heat Ratio {dimensionless}
    4.0,                     !- Speed 1 Reference Unit Gross Rated Cooling COP {W/W}
    0.1359072,               !- Speed 1 Reference Unit Rated Air Flow Rate {m3/s}
    ,                        !- Speed 1 2017 Rated Evaporator Fan Power Per Volume Flow Rate {W/(m3/s)}
    ,                        !- Speed 1 2023 Rated Evaporator Fan Power Per Volume Flow Rate {W/(m3/s)}
    0.26,                    !- Speed 1 Reference Unit Rated Condenser Air Flow Rate {m3/s}
    ,                        !- Speed 1 Reference Unit Rated Pad Effectiveness of Evap Precooling {dimensionless}
    FURNACE_PACU_CAV:1_Unitary_PackagecoolCapFT,  !- Speed 1 Total Cooling Capacity Function of Temperature Curve Name
    FURNACE_PACU_CAV:1_Unitary_PackagecoolFFF,  !- Speed 1 Total Cooling Capacity Function of Air Flow Fraction Curve Name
    FURNACE_PACU_CAV:1_Unitary_PackagecoolEIRFT,  !- Speed 1 Energy Input Ratio Function of Temperature Curve Name
    FURNACE_PACU_CAV:1_Unitary_PackagecoolEIRFFF,  !- Speed 1 Energy Input Ratio Function of Air Flow Fraction Curve Name
    1877.9,                  !- Speed 2 Reference Unit Gross Rated Total Cooling Capacity {W}
    0.75,                    !- Speed 2 Reference Unit Gross Rated Sensible Heat Ratio {dimensionless}
    4.0,                     !- Speed 2 Reference Unit Gross Rated Cooling COP {W/W}
    0.151008,                !- Speed 2 Reference Unit Rated Air Flow Rate {m3/s}
    ,                        !- Speed 2 2017 Rated Evaporator Fan Power Per Volume Flow Rate {W/(m3/s)}
    ,                        !- Speed 2 2023 Rated Evaporator Fan Power Per Volume Flow Rate {W/(m3/s)}
    0.30,                    !- Speed 2 Reference Unit Rated Condenser Air Flow Rate {m3/s}
    ,                        !- Speed 2 Reference Unit Rated Pad Effectiveness of Evap Precooling {dimensionless}
    FURNACE_PACU_CAV:1_Unitary_PackagecoolCapFT,  !- Speed 2 Total Cooling Capacity Function of Temperature Curve Name
    FURNACE_PACU_CAV:1_Unitary_PackagecoolFFF,  !- Speed 2 Total Cooling Capacity Function of Air Flow Fraction Curve Name
    FURNACE_PACU_CAV:1_Unitary_PackagecoolEIRFT,  !- Speed 2 Energy Input Ratio Function of Temperature Curve Name
    FURNACE_PACU_CAV:1_Unitary_PackagecoolEIRFFF,  !- Speed 2 Energy Input Ratio Function of Air Flow Fraction Curve Name
    2226.6,                  !- Speed 3 Reference Unit Gross Rated Total Cooling Capacity {W}
    0.75,                    !- Speed 3 Reference Unit Gross Rated Sensible Heat Ratio {dimensionless}
    4.0,                     !- Speed 3 Reference Unit Gross Rated Cooling COP {W/W}
    0.1661088,               !- Speed 3 Reference Unit Rated Air Flow Rate {m3/s}
    ,                        !- Speed 3 2017 Rated Evaporator Fan Power Per Volume Flow Rate {W/(m3/s)}
    ,                        !- Speed 3 2023 Rated Evaporator Fan Power Per Volume Flow Rate {W/(m3/s)}
    0.33,                    !- Speed 3 Reference Unit Rated Condenser Air Flow Rate {m3/s}
    ,                        !- Speed 3 Reference Unit Rated Pad Effectiveness of Evap Precooling {dimensionless}
    FURNACE_PACU_CAV:1_Unitary_PackagecoolCapFT,  !- Speed 3 Total Cooling Capacity Function of Temperature Curve Name
    FURNACE_PACU_CAV:1_Unitary_PackagecoolFFF,  !- Speed 3 Total Cooling Capacity Function of Air Flow Fraction Curve Name
    FURNACE_PACU_CAV:1_Unitary_PackagecoolEIRFT,  !- Speed 3 Energy Input Ratio Function of Temperature Curve Name
    FURNACE_PACU_CAV:1_Unitary_PackagecoolEIRFFF,  !- Speed 3 Energy Input Ratio Function of Air Flow Fraction Curve Name
    2911.3,                  !- Speed 4 Reference Unit Gross Rated Total Cooling Capacity {W}
    0.75,                    !- Speed 4 Reference Unit Gross Rated Sensible Heat Ratio {dimensionless}
    4.0,                     !- Speed 4 Reference Unit Gross Rated Cooling COP {W/W}
    0.1963104,               !- Speed 4 Reference Unit Rated Air Flow Rate {m3/s}
    ,                        !- Speed 4 2017 Rated Evaporator Fan Power Per Volume Flow Rate {W/(m3/s)}
    ,                        !- Speed 4 2023 Rated Evaporator Fan Power Per Volume Flow Rate {W/(m3/s)}
    0.38,                    !- Speed 4 Reference Unit Rated Condenser Air Flow Rate {m3/s}
    ,                        !- Speed 4 Reference Unit Rated Pad Effectiveness of Evap Precooling {dimensionless}
    FURNACE_PACU_CAV:1_Unitary_PackagecoolCapFT,  !- Speed 4 Total Cooling Capacity Function of Temperature Curve Name
    FURNACE_PACU_CAV:1_Unitary_PackagecoolFFF,  !- Speed 4 Total Cooling Capacity Function of Air Flow Fraction Curve Name
    FURNACE_PACU_CAV:1_Unitary_PackagecoolEIRFT,  !- Speed 4 Energy Input Ratio Function of Temperature Curve Name
    FURNACE_PACU_CAV:1_Unitary_PackagecoolEIRFFF,  !- Speed 4 Energy Input Ratio Function of Air Flow Fraction Curve Name
    3581.7,                  !- Speed 5 Reference Unit Gross Rated Total Cooling Capacity {W}
    0.75,                    !- Speed 5 Reference Unit Gross Rated Sensible Heat Ratio {dimensionless}
    4.0,                     !- Speed 5 Reference Unit Gross Rated Cooling COP {W/W}
    0.226512,                !- Speed 5 Reference Unit Rated Air Flow Rate {m3/s}
    ,                        !- Speed 5 2017 Rated Evaporator Fan Power Per Volume Flow Rate {W/(m3/s)}
    ,                        !- Speed 5 2023 Rated Evaporator Fan Power Per Volume Flow Rate {W/(m3/s)}
    0.44,                    !- Speed 5 Reference Unit Rated Condenser Air Flow Rate {m3/s}
    ,                        !- Speed 5 Reference Unit Rated Pad Effectiveness of Evap Precooling {dimensionless}
    FURNACE_PACU_CAV:1_Unitary_PackagecoolCapFT,  !- Speed 5 Total Cooling Capacity Function of Temperature Curve Name
    FURNACE_PACU_CAV:1_Unitary_PackagecoolFFF,  !- Speed 5 Total Cooling Capacity Function of Air Flow Fraction Curve Name
    FURNACE_PACU_CAV:1_Unitary_PackagecoolEIRFT,  !- Speed 5 Energy Input Ratio Function of Temperature Curve Name
    FURNACE_PACU_CAV:1_Unitary_PackagecoolEIRFFF,  !- Speed 5 Energy Input Ratio Function of Air Flow Fraction Curve Name
    4239.5,                  !- Speed 6 Reference Unit Gross Rated Total Cooling Capacity {W}
    0.75,                    !- Speed 6 Reference Unit Gross Rated Sensible Heat Ratio {dimensionless}
    4.0,                     !- Speed 6 Reference Unit Gross Rated Cooling COP {W/W}
    0.2567136,               !- Speed 6 Reference Unit Rated Air Flow Rate {m3/s}
    ,                        !- Speed 6 2017 Rated Evaporator Fan Power Per Volume Flow Rate {W/(m3/s)}
    ,                        !- Speed 6 2023 Rated Evaporator Fan Power Per Volume Flow Rate {W/(m3/s)}
    0.50,                    !- Speed 6 Reference Unit Condenser Air Flow Rate {m3/s}
    ,                        !- Speed 6 Reference Unit Rated Pad Effectiveness of Evap Precooling {dimensionless}
    FURNACE_PACU_CAV:1_Unitary_PackagecoolCapFT,  !- Speed 6 Total Cooling Capacity Function of Temperature Curve Name
    FURNACE_PACU_CAV:1_Unitary_PackagecoolFFF,  !- Speed 6 Total Cooling Capacity Function of Air Flow Fraction Curve Name
    FURNACE_PACU_CAV:1_Unitary_PackagecoolEIRFT,  !- Speed 6 Energy Input Ratio Function of Temperature Curve Name
    FURNACE_PACU_CAV:1_Unitary_PackagecoolEIRFFF,  !- Speed 6 Energy Input Ratio Function of Air Flow Fraction Curve Name
    4885.7,                  !- Speed 7 Reference Unit Gross Rated Total Cooling Capacity {W}
    0.75,                    !- Speed 7 Reference Unit Gross Rated Sensible Heat Ratio {dimensionless}
    4.0,                     !- Speed 7 Reference Unit Gross Rated Cooling COP {W/W}
    0.2869152,               !- Speed 7 Reference Unit Rated Air Flow Rate {m3/s}
    ,                        !- Speed 7 2017 Rated Evaporator Fan Power Per Volume Flow Rate {W/(m3/s)}
    ,                        !- Speed 7 2023 Rated Evaporator Fan Power Per Volume Flow Rate {W/(m3/s)}
    0.57,                    !- Speed 7 Reference Unit Condenser Flow Rate {m3/s}
    ,                        !- Speed 7 Reference Unit Rated Pad Effectiveness of Evap Precooling {dimensionless}
    FURNACE_PACU_CAV:1_Unitary_PackagecoolCapFT,  !- Speed 7 Total Cooling Capacity Function of Temperature Curve Name
    FURNACE_PACU_CAV:1_Unitary_PackagecoolFFF,  !- Speed 7 Total Cooling Capacity Function of Air Flow Fraction Curve Name
    FURNACE_PACU_CAV:1_Unitary_PackagecoolEIRFT,  !- Speed 7 Energy Input Ratio Function of Temperature Curve Name
    FURNACE_PACU_CAV:1_Unitary_PackagecoolEIRFFF,  !- Speed 7 Energy Input Ratio Function of Air Flow Fraction Curve Name
    5520.7,                  !- Speed 8 Reference Unit Gross Rated Total Cooling Capacity {W}
    0.75,                    !- Speed 8 Reference Unit Gross Rated Sensible Heat Ratio {dimensionless}
    4.0,                     !- Speed 8 Reference Unit Gross Rated Cooling COP {W/W}
    0.3171168,               !- Speed 8 Reference Unit Rated Air Flow Rate {m3/s}
    ,                        !- Speed 8 2017 Rated Evaporator Fan Power Per Volume Flow Rate {W/(m3/s)}
    ,                        !- Speed 8 2023 Rated Evaporator Fan Power Per Volume Flow Rate {W/(m3/s)}
    0.63,                    !- Speed 8 Reference Unit Condenser Air Flow Rate {m3/s}
    ,                        !- Speed 8 Reference Unit Rated Pad Effectiveness of Evap Precooling {dimensionless}
    FURNACE_PACU_CAV:1_Unitary_PackagecoolCapFT,  !- Speed 8 Total Cooling Capacity Function of Temperature Curve Name
    FURNACE_PACU_CAV:1_Unitary_PackagecoolFFF,  !- Speed 8 Total Cooling Capacity Function of Air Flow Fraction Curve Name
    FURNACE_PACU_CAV:1_Unitary_PackagecoolEIRFT,  !- Speed 8 Energy Input Ratio Function of Temperature Curve Name
    FURNACE_PACU_CAV:1_Unitary_PackagecoolEIRFFF,  !- Speed 8 Energy Input Ratio Function of Air Flow Fraction Curve Name
    6144.8,                  !- Speed 9 Reference Unit Gross Rated Total Cooling Capacity {W}
    0.75,                    !- Speed 9 Reference Unit Gross Rated Sensible Heat Ratio {dimensionless}
    4.0,                     !- Speed 9 Reference Unit Gross Rated Cooling COP {W/W}
    0.3473184,               !- Speed 9 Reference Unit Rated Air Flow Rate {m3/s}
    ,                        !- Speed 9 2017 Rated Evaporator Fan Power Per Volume Flow Rate {W/(m3/s)}
    ,                        !- Speed 9 2023 Rated Evaporator Fan Power Per Volume Flow Rate {W/(m3/s)}
    0.69,                    !- Speed 9 Reference Unit Condenser Air Flow Rate {m3/s}
    ,                        !- Speed 9 Reference Unit Rated Pad Effectiveness of Evap Precooling {dimensionless}
    FURNACE_PACU_CAV:1_Unitary_PackagecoolCapFT,  !- Speed 9 Total Cooling Capacity Function of Temperature Curve Name
    FURNACE_PACU_CAV:1_Unitary_PackagecoolFFF,  !- Speed 9 Total Cooling Capacity Function of Air Flow Fraction Curve Name
    FURNACE_PACU_CAV:1_Unitary_PackagecoolEIRFT,  !- Speed 9 Energy Input Ratio Function of Temperature Curve Name
    FURNACE_PACU_CAV:1_Unitary_PackagecoolEIRFFF,  !- Speed 9 Energy Input Ratio Function of Air Flow Fraction Curve Name
    6758.0,                  !- Speed 10 Reference Unit Gross Rated Total Cooling Capacity {W}
    0.75,                    !- Speed 10 Reference Unit Gross Rated Sensible Heat Ratio {dimensionless}
    4.0,                     !- Speed 10 Reference Unit Gross Rated Cooling COP {W/W}
    0.37752,                 !- Speed 10 Reference Unit Rated Air Flow Rate {m3/s}
    ,                        !- Speed 10 2017 Rated Evaporator Fan Power Per Volume Flow Rate {W/(m3/s)}
    ,                        !- Speed 10 2023 Rated Evaporator Fan Power Per Volume Flow Rate {W/(m3/s)}
    0.74,                    !- Speed 10 Reference Unit Condenser Air Flow Rate {m3/s}
    ,                        !- Speed 10 Reference Unit Rated Pad Effectiveness of Evap Precooling {dimensionless}
    FURNACE_PACU_CAV:1_Unitary_PackagecoolCapFT,  !- Speed 10 Total Cooling Capacity Function of Temperature Curve Name
    FURNACE_PACU_CAV:1_Unitary_PackagecoolFFF,  !- Speed 10 Total Cooling Capacity Function of Air Flow Fraction Curve Name
    FURNACE_PACU_CAV:1_Unitary_PackagecoolEIRFT,  !- Speed 10 Energy Input Ratio Function of Temperature Curve Name
    FURNACE_PACU_CAV:1_Unitary_PackagecoolEIRFFF;  !- Speed 10 Energy Input Ratio Function of Air Flow Fraction Curve Name

  Coil:Cooling:DX:VariableSpeed,
    FURNACE_PACU_CAV:2_Unitary_Package_CoolCoil,  !- Name
    FURNACE_PACU_CAV:2_Unitary_PackageCoolCoil air inlet,  !- Indoor Air Inlet Node Name
    FURNACE_PACU_CAV:2_Unitary_PackageHeatCoil air inlet,  !- Indoor Air Outlet Node Name
    10.0,                    !- Number of Speeds {dimensionless}
    10.0,                    !- Nominal Speed Level {dimensionless}
    AUTOSIZE,                !- Gross Rated Total Cooling Capacity At Selected Nominal Speed Level {W}
    AUTOSIZE,                !- Rated Air Flow Rate At Selected Nominal Speed Level {m3/s}
    0.0,                     !- Nominal Time for Condensate to Begin Leaving the Coil {s}
    0.0,                     !- Initial Moisture Evaporation Rate Divided by Steady-State AC Latent Capacity {dimensionless}
    ,                        !- Maximum Cycling Rate
    ,                        !- Latent Capacity Time Constant
    ,                        !- Fan Delay Time
    FURNACE_PACU_CAV:2_Unitary_PackagecoolPLR,  !- Energy Part Load Fraction Curve Name
    ,                        !- Condenser Air Inlet Node Name
    AirCooled,               !- Condenser Type
    ,                        !- Evaporative Condenser Pump Rated Power Consumption {W}
    200.0,                   !- Crankcase Heater Capacity {W}
    ,                        !- Crankcase Heater Capacity Function of Temperature Curve Name
    10.0,                    !- Maximum Outdoor Dry-Bulb Temperature for Crankcase Heater Operation {C}
    ,                        !- Minimum Outdoor Dry-Bulb Temperature for Compressor Operation {C}
    ,                        !- Supply Water Storage Tank Name
    ,                        !- Condensate Collection Water Storage Tank Name
    ,                        !- Basin Heater Capacity {W/K}
    ,                        !- Basin Heater Setpoint Temperature {C}
    ,                        !- Basin Heater Operating Schedule Name
    1524.1,                  !- Speed 1 Reference Unit Gross Rated Total Cooling Capacity {W}
    0.75,                    !- Speed 1 Reference Unit Gross Rated Sensible Heat Ratio {dimensionless}
    4.0,                     !- Speed 1 Reference Unit Gross Rated Cooling COP {W/W}
    0.1359072,               !- Speed 1 Reference Unit Rated Air Flow Rate {m3/s}
    ,                        !- Speed 1 2017 Rated Evaporator Fan Power Per Volume Flow Rate {W/(m3/s)}
    ,                        !- Speed 1 2023 Rated Evaporator Fan Power Per Volume Flow Rate {W/(m3/s)}
    0.26,                    !- Speed 1 Reference Unit Rated Condenser Air Flow Rate {m3/s}
    ,                        !- Speed 1 Reference Unit Rated Pad Effectiveness of Evap Precooling {dimensionless}
    FURNACE_PACU_CAV:2_Unitary_PackagecoolCapFT,  !- Speed 1 Total Cooling Capacity Function of Temperature Curve Name
    FURNACE_PACU_CAV:2_Unitary_PackagecoolFFF,  !- Speed 1 Total Cooling Capacity Function of Air Flow Fraction Curve Name
    FURNACE_PACU_CAV:2_Unitary_PackagecoolEIRFT,  !- Speed 1 Energy Input Ratio Function of Temperature Curve Name
    FURNACE_PACU_CAV:2_Unitary_PackagecoolEIRFFF,  !- Speed 1 Energy Input Ratio Function of Air Flow Fraction Curve Name
    1877.9,                  !- Speed 2 Reference Unit Gross Rated Total Cooling Capacity {W}
    0.75,                    !- Speed 2 Reference Unit Gross Rated Sensible Heat Ratio {dimensionless}
    4.0,                     !- Speed 2 Reference Unit Gross Rated Cooling COP {W/W}
    0.151008,                !- Speed 2 Reference Unit Rated Air Flow Rate {m3/s}
    ,                        !- Speed 2 2017 Rated Evaporator Fan Power Per Volume Flow Rate {W/(m3/s)}
    ,                        !- Speed 2 2023 Rated Evaporator Fan Power Per Volume Flow Rate {W/(m3/s)}
    0.30,                    !- Speed 2 Reference Unit Rated Condenser Air Flow Rate {m3/s}
    ,                        !- Speed 2 Reference Unit Rated Pad Effectiveness of Evap Precooling {dimensionless}
    FURNACE_PACU_CAV:2_Unitary_PackagecoolCapFT,  !- Speed 2 Total Cooling Capacity Function of Temperature Curve Name
    FURNACE_PACU_CAV:2_Unitary_PackagecoolFFF,  !- Speed 2 Total Cooling Capacity Function of Air Flow Fraction Curve Name
    FURNACE_PACU_CAV:2_Unitary_PackagecoolEIRFT,  !- Speed 2 Energy Input Ratio Function of Temperature Curve Name
    FURNACE_PACU_CAV:2_Unitary_PackagecoolEIRFFF,  !- Speed 2 Energy Input Ratio Function of Air Flow Fraction Curve Name
    2226.6,                  !- Speed 3 Reference Unit Gross Rated Total Cooling Capacity {W}
    0.75,                    !- Speed 3 Reference Unit Gross Rated Sensible Heat Ratio {dimensionless}
    4.0,                     !- Speed 3 Reference Unit Gross Rated Cooling COP {W/W}
    0.1661088,               !- Speed 3 Reference Unit Rated Air Flow Rate {m3/s}
    ,                        !- Speed 3 2017 Rated Evaporator Fan Power Per Volume Flow Rate {W/(m3/s)}
    ,                        !- Speed 3 2023 Rated Evaporator Fan Power Per Volume Flow Rate {W/(m3/s)}
    0.33,                    !- Speed 3 Reference Unit Rated Condenser Air Flow Rate {m3/s}
    ,                        !- Speed 3 Reference Unit Rated Pad Effectiveness of Evap Precooling {dimensionless}
    FURNACE_PACU_CAV:2_Unitary_PackagecoolCapFT,  !- Speed 3 Total Cooling Capacity Function of Temperature Curve Name
    FURNACE_PACU_CAV:2_Unitary_PackagecoolFFF,  !- Speed 3 Total Cooling Capacity Function of Air Flow Fraction Curve Name
    FURNACE_PACU_CAV:2_Unitary_PackagecoolEIRFT,  !- Speed 3 Energy Input Ratio Function of Temperature Curve Name
    FURNACE_PACU_CAV:2_Unitary_PackagecoolEIRFFF,  !- Speed 3 Energy Input Ratio Function of Air Flow Fraction Curve Name
    2911.3,                  !- Speed 4 Reference Unit Gross Rated Total Cooling Capacity {W}
    0.75,                    !- Speed 4 Reference Unit Gross Rated Sensible Heat Ratio {dimensionless}
    4.0,                     !- Speed 4 Reference Unit Gross Rated Cooling COP {W/W}
    0.1963104,               !- Speed 4 Reference Unit Rated Air Flow Rate {m3/s}
    ,                        !- Speed 4 2017 Rated Evaporator Fan Power Per Volume Flow Rate {W/(m3/s)}
    ,                        !- Speed 4 2023 Rated Evaporator Fan Power Per Volume Flow Rate {W/(m3/s)}
    0.38,                    !- Speed 4 Reference Unit Rated Condenser Air Flow Rate {m3/s}
    ,                        !- Speed 4 Reference Unit Rated Pad Effectiveness of Evap Precooling {dimensionless}
    FURNACE_PACU_CAV:2_Unitary_PackagecoolCapFT,  !- Speed 4 Total Cooling Capacity Function of Temperature Curve Name
    FURNACE_PACU_CAV:2_Unitary_PackagecoolFFF,  !- Speed 4 Total Cooling Capacity Function of Air Flow Fraction Curve Name
    FURNACE_PACU_CAV:2_Unitary_PackagecoolEIRFT,  !- Speed 4 Energy Input Ratio Function of Temperature Curve Name
    FURNACE_PACU_CAV:2_Unitary_PackagecoolEIRFFF,  !- Speed 4 Energy Input Ratio Function of Air Flow Fraction Curve Name
    3581.7,                  !- Speed 5 Reference Unit Gross Rated Total Cooling Capacity {W}
    0.75,                    !- Speed 5 Reference Unit Gross Rated Sensible Heat Ratio {dimensionless}
    4.0,                     !- Speed 5 Reference Unit Gross Rated Cooling COP {W/W}