!-Generator IDFEditor 1.34
!-Option OriginalOrderTop UseSpecialFormat
!-NOTE: All comments with '!-' are ignored by the IDFEditor and are generated automatically.
!-      Use '!' comments if they need to be retained when using the IDFEditor.
!DisplacementVent_VAV.idf
! Basic file description:  Single zone open space building with a displacement ventilation variable air volume system.
!
! Highlights:              VAV displacement ventilation
!
! Simulation Location/Run: USA_CA_SanFrancisco TMY2-23234, 2 design days, 1 run periodx,
!                          Run Control executes the run period using the weather file
!
! Location:                San Francisco, CA
!
! Design Days:             SAN_FRANCISCO_CA_USA Annual Heating 99%, MaxDB=4.4°C
!                          SAN_FRANCISCO_CA_USA Annual Cooling (DB=>MWB) 1%, MaxDB=25.6°C MWB=16.6°C
!
! Run Period (Weather File): 6/29 - 7/1,  USA_CA_SanFrancisco TMY2-23234
!
! Run Control:             Zone and System sizing with weather file run control (no design days run)
!
! Building:  The building measures 10m (along the East-West direction), 8m (along the North-South direction)
!            and 4m in height. One meter high clear glazing windows are used along the top of the South and
!            North facades (the south window is shaded). The lateral walls are composed of two layers:
!            5cm of concrete on the outside and 5cm insulation on the inside. Exposed thermal mass exists only
!            on the floor and ceiling surfaces that are composed of two layers: 7.5cm of insulation on the
!            outside and 7.5cm of concrete on the inside.
!
! Floor Area:        80 m2 (860.8 ft2)
! Number of Stories: 1
!
! Internal gains description:     lighting is 0 watts/ft2, office equip is 2.6 watts/ft2. There is 1 occupant
!                                 per 86 ft2 of floor area. The infiltration is 1.0 air changes per hour.
!
! Interzone Surfaces:             None
! Internal Mass:                  None
! People:                         10
! Lights:                         0 W
! Windows:                        2: Double pane clear, 6mm glass, 13mm air gap
!
! Detached Shading:               None
! Daylight:                       None
! Natural Ventilation:            None
! Compact Schedules:              Yes
!
! HVAC:                           Packaged VAV system with DX cooling coil, gas heating coil and
!                                 a draw through fan. There is an outside air inlet with economizer.
!
! Zonal Equipment:                AirTerminal:SingleDuct:VAV:Reheat
! Central Air Handling Equipment: Yes
! System Equipment Autosize:      Yes
! Purchased Cooling:              None
! Purchased Heating:              None
! Coils:                          Coil:Cooling:DX:TwoSpeed, Coil:Heating:Fuel
! Pumps:                          None
! Boilers:                        None
! Chillers:                       None
! Towers:                         None
!
! Results:
! Standard Reports:               All Summary Predefined Reports
! Timestep or Hourly Variables:   TimeStep
! Time bins Report:               None
! HTML Report:                    Predefined All Summary
! Environmental Emissions:        None
! Utility Tariffs:                None

  Version,24.1;

  Building,
    ONE ZONE TEST,           !- Name
    0,                       !- North Axis {deg}
    Suburbs,                 !- Terrain
    0.04,                    !- Loads Convergence Tolerance Value {W}
    0.4,                     !- Temperature Convergence Tolerance Value {deltaC}
    FullInteriorAndExterior, !- Solar Distribution
    25,                      !- Maximum Number of Warmup Days
    6;                       !- Minimum Number of Warmup Days

  Timestep,6;

  SurfaceConvectionAlgorithm:Inside,TARP;

  SurfaceConvectionAlgorithm:Outside,DOE-2;

  HeatBalanceAlgorithm,ConductionTransferFunction;

  ShadowCalculation,
    PolygonClipping,         !- Shading Calculation Method
    Periodic,                !- Shading Calculation Update Frequency Method
    20;                      !- Shading Calculation Update Frequency

  SimulationControl,
    Yes,                     !- Do Zone Sizing Calculation
    Yes,                     !- Do System Sizing Calculation
    No,                      !- Do Plant Sizing Calculation
    No,                      !- Run Simulation for Sizing Periods
    Yes,                     !- Run Simulation for Weather File Run Periods
    No,                      !- Do HVAC Sizing Simulation for Sizing Periods
    1;                       !- Maximum Number of HVAC Sizing Simulation Passes

  RunPeriod,
    Run Period 1,            !- Name
    6,                       !- Begin Month
    29,                      !- Begin Day of Month
    ,                        !- Begin Year
    7,                       !- End Month
    1,                       !- End Day of Month
    ,                        !- End Year
    ,                        !- Day of Week for Start Day
    No,                      !- Use Weather File Holidays and Special Days
    No,                      !- Use Weather File Daylight Saving Period
    No,                      !- Apply Weekend Holiday Rule
    Yes,                     !- Use Weather File Rain Indicators
    Yes;                     !- Use Weather File Snow Indicators

  Site:Location,
    SAN_FRANCISCO_CA_USA_WMO_724940,  !- Name
    37.62,                   !- Latitude {deg}
    -122.37,                 !- Longitude {deg}
    -8.00,                   !- Time Zone {hr}
    5.00;                    !- Elevation {m}

! SAN_FRANCISCO_CA_USA Annual Heating 99%, MaxDB=4.4°C

  SizingPeriod:DesignDay,
    SAN_FRANCISCO Ann Htg 99% Condns DB,  !- Name
    1,                       !- Month
    21,                      !- Day of Month
    WinterDesignDay,         !- Day Type
    4.4,                     !- Maximum Dry-Bulb Temperature {C}
    0.0,                     !- Daily Dry-Bulb Temperature Range {deltaC}
    ,                        !- Dry-Bulb Temperature Range Modifier Type
    ,                        !- Dry-Bulb Temperature Range Modifier Day Schedule Name
    Wetbulb,                 !- Humidity Condition Type
    4.4,                     !- Wetbulb or DewPoint at Maximum Dry-Bulb {C}
    ,                        !- Humidity Condition Day Schedule Name
    ,                        !- Humidity Ratio at Maximum Dry-Bulb {kgWater/kgDryAir}
    ,                        !- Enthalpy at Maximum Dry-Bulb {J/kg}
    ,                        !- Daily Wet-Bulb Temperature Range {deltaC}
    101265.,                 !- Barometric Pressure {Pa}
    2.4,                     !- Wind Speed {m/s}
    140,                     !- Wind Direction {deg}
    No,                      !- Rain Indicator
    No,                      !- Snow Indicator
    No,                      !- Daylight Saving Time Indicator
    ASHRAEClearSky,          !- Solar Model Indicator
    ,                        !- Beam Solar Day Schedule Name
    ,                        !- Diffuse Solar Day Schedule Name
    ,                        !- ASHRAE Clear Sky Optical Depth for Beam Irradiance (taub) {dimensionless}
    ,                        !- ASHRAE Clear Sky Optical Depth for Diffuse Irradiance (taud) {dimensionless}
    0.00;                    !- Sky Clearness

! SAN_FRANCISCO_CA_USA Annual Cooling (DB=>MWB) 1%, MaxDB=25.6°C MWB=16.6°C

  SizingPeriod:DesignDay,
    SAN_FRANCISCO Ann Clg 1% Condns DB=>MWB,  !- Name
    9,                       !- Month
    21,                      !- Day of Month
    SummerDesignDay,         !- Day Type
    25.6,                    !- Maximum Dry-Bulb Temperature {C}
    9,                       !- Daily Dry-Bulb Temperature Range {deltaC}
    ,                        !- Dry-Bulb Temperature Range Modifier Type
    ,                        !- Dry-Bulb Temperature Range Modifier Day Schedule Name
    Wetbulb,                 !- Humidity Condition Type
    16.6,                    !- Wetbulb or DewPoint at Maximum Dry-Bulb {C}
    ,                        !- Humidity Condition Day Schedule Name
    ,                        !- Humidity Ratio at Maximum Dry-Bulb {kgWater/kgDryAir}
    ,                        !- Enthalpy at Maximum Dry-Bulb {J/kg}
    ,                        !- Daily Wet-Bulb Temperature Range {deltaC}
    101265.,                 !- Barometric Pressure {Pa}
    5.8,                     !- Wind Speed {m/s}
    310,                     !- Wind Direction {deg}
    No,                      !- Rain Indicator
    No,                      !- Snow Indicator
    No,                      !- Daylight Saving Time Indicator
    ASHRAEClearSky,          !- Solar Model Indicator
    ,                        !- Beam Solar Day Schedule Name
    ,                        !- Diffuse Solar Day Schedule Name
    ,                        !- ASHRAE Clear Sky Optical Depth for Beam Irradiance (taub) {dimensionless}
    ,                        !- ASHRAE Clear Sky Optical Depth for Diffuse Irradiance (taud) {dimensionless}
    1.00;                    !- Sky Clearness

  Site:GroundTemperature:BuildingSurface,20,20,20,20,20,20,20,20,20,20,20,20;

  Material,
    B5 - 1 IN DENSE INSULATION,  !- Name
    VeryRough,               !- Roughness
    2.5389841E-02,           !- Thickness {m}
    0.025,                   !- Conductivity {W/m-K}
    91.30524,                !- Density {kg/m3}
    836.8000,                !- Specific Heat {J/kg-K}
    0.9000000,               !- Thermal Absorptance
    0.5000000,               !- Solar Absorptance
    0.5000000;               !- Visible Absorptance

  Material,
    C12 - 2 IN HW CONCRETE,  !- Name
    MediumRough,             !- Roughness
    0.0250901599,            !- Thickness {m}
    1.729577,                !- Conductivity {W/m-K}
    2242.585,                !- Density {kg/m3}
    836.8000,                !- Specific Heat {J/kg-K}
    0.9000000,               !- Thermal Absorptance
    0.6500000,               !- Solar Absorptance
    0.6500000;               !- Visible Absorptance

  WindowMaterial:Glazing,
    CLEAR 6MM,               !- Name
    SpectralAverage,         !- Optical Data Type
    ,                        !- Window Glass Spectral Data Set Name
    0.006,                   !- Thickness {m}
    0.775,                   !- Solar Transmittance at Normal Incidence
    0.071,                   !- Front Side Solar Reflectance at Normal Incidence
    0.071,                   !- Back Side Solar Reflectance at Normal Incidence
    0.881,                   !- Visible Transmittance at Normal Incidence
    0.080,                   !- Front Side Visible Reflectance at Normal Incidence
    0.080,                   !- Back Side Visible Reflectance at Normal Incidence
    0.0,                     !- Infrared Transmittance at Normal Incidence
    0.84,                    !- Front Side Infrared Hemispherical Emissivity
    0.84,                    !- Back Side Infrared Hemispherical Emissivity
    0.9;                     !- Conductivity {W/m-K}

  WindowMaterial:Gas,
    AIR 13MM,                !- Name
    Air,                     !- Gas Type
    0.0127;                  !- Thickness {m}

! 2004  U=2.74  SC= .81  SHGC=.70  TSOL=.60  TVIS=.78

  Construction,
    Dbl Clr 6mm/13mm Air,    !- Name
    CLEAR 6MM,               !- Outside Layer
    AIR 13MM,                !- Layer 2
    CLEAR 6MM;               !- Layer 3

  Construction,
    WALL1,                   !- Name
    C12 - 2 IN HW CONCRETE,  !- Outside Layer
    C12 - 2 IN HW CONCRETE,  !- Layer 2
    B5 - 1 IN DENSE INSULATION,  !- Layer 3
    B5 - 1 IN DENSE INSULATION;  !- Layer 4

  Construction,
    Floor1,                  !- Name
    B5 - 1 IN DENSE INSULATION,  !- Outside Layer
    B5 - 1 IN DENSE INSULATION,  !- Layer 2
    B5 - 1 IN DENSE INSULATION,  !- Layer 3
    C12 - 2 IN HW CONCRETE,  !- Layer 4
    C12 - 2 IN HW CONCRETE,  !- Layer 5
    C12 - 2 IN HW CONCRETE;  !- Layer 6

  Construction,
    Ceiling1,                !- Name
    B5 - 1 IN DENSE INSULATION,  !- Outside Layer
    B5 - 1 IN DENSE INSULATION,  !- Layer 2
    B5 - 1 IN DENSE INSULATION,  !- Layer 3
    C12 - 2 IN HW CONCRETE,  !- Layer 4
    C12 - 2 IN HW CONCRETE,  !- Layer 5
    C12 - 2 IN HW CONCRETE;  !- Layer 6

  Zone,
    ZONE ONE,                !- Name
    0,                       !- Direction of Relative North {deg}
    0,                       !- X Origin {m}
    0,                       !- Y Origin {m}
    0,                       !- Z Origin {m}
    1,                       !- Type
    1,                       !- Multiplier
    autocalculate,           !- Ceiling Height {m}
    autocalculate;           !- Volume {m3}

  GlobalGeometryRules,
    UpperLeftCorner,         !- Starting Vertex Position
    CounterClockWise,        !- Vertex Entry Direction
    Relative;                !- Coordinate System

  BuildingSurface:Detailed,
    Zn001:Wall001,           !- Name
    Wall,                    !- Surface Type
    WALL1,                   !- Construction Name
    ZONE ONE,                !- Zone Name
    ,                        !- Space Name
    Outdoors,                !- Outside Boundary Condition
    ,                        !- Outside Boundary Condition Object
    SunExposed,              !- Sun Exposure
    WindExposed,             !- Wind Exposure
    0.6,                     !- View Factor to Ground
    4,                       !- Number of Vertices
    0,0,4,  !- X,Y,Z ==> Vertex 1 {m}
    0,0,0,  !- X,Y,Z ==> Vertex 2 {m}
    10,0,0,  !- X,Y,Z ==> Vertex 3 {m}
    10,0,4;  !- X,Y,Z ==> Vertex 4 {m}

  BuildingSurface:Detailed,
    Zn001:Wall002,           !- Name
    Wall,                    !- Surface Type
    WALL1,                   !- Construction Name
    ZONE ONE,                !- Zone Name
    ,                        !- Space Name
    Outdoors,                !- Outside Boundary Condition
    ,                        !- Outside Boundary Condition Object
    SunExposed,              !- Sun Exposure
    WindExposed,             !- Wind Exposure
    0.4,                     !- View Factor to Ground
    4,                       !- Number of Vertices
    10,0,4,  !- X,Y,Z ==> Vertex 1 {m}
    10,0,0,  !- X,Y,Z ==> Vertex 2 {m}
    10,8,0,  !- X,Y,Z ==> Vertex 3 {m}
    10,8,4;  !- X,Y,Z ==> Vertex 4 {m}

  BuildingSurface:Detailed,
    Zn001:Wall003,           !- Name
    Wall,                    !- Surface Type
    WALL1,                   !- Construction Name
    ZONE ONE,                !- Zone Name
    ,                        !- Space Name
    Outdoors,                !- Outside Boundary Condition
    ,                        !- Outside Boundary Condition Object
    SunExposed,              !- Sun Exposure
    WindExposed,             !- Wind Exposure
    0.3,                     !- View Factor to Ground
    4,                       !- Number of Vertices
    10,8,4,  !- X,Y,Z ==> Vertex 1 {m}
    10,8,0,  !- X,Y,Z ==> Vertex 2 {m}
    0,8,0,  !- X,Y,Z ==> Vertex 3 {m}
    0,8,4;  !- X,Y,Z ==> Vertex 4 {m}

  BuildingSurface:Detailed,
    Zn001:Wall004,           !- Name
    Wall,                    !- Surface Type
    WALL1,                   !- Construction Name
    ZONE ONE,                !- Zone Name
    ,                        !- Space Name
    Outdoors,                !- Outside Boundary Condition
    ,                        !- Outside Boundary Condition Object
    SunExposed,              !- Sun Exposure
    WindExposed,             !- Wind Exposure
    0.3,                     !- View Factor to Ground
    4,                       !- Number of Vertices
    0,8,4,  !- X,Y,Z ==> Vertex 1 {m}
    0,8,0,  !- X,Y,Z ==> Vertex 2 {m}
    0,0,0,  !- X,Y,Z ==> Vertex 3 {m}
    0,0,4;  !- X,Y,Z ==> Vertex 4 {m}

  BuildingSurface:Detailed,
    FLOOR,                   !- Name
    FLOOR,                   !- Surface Type
    Floor1,                  !- Construction Name
    ZONE ONE,                !- Zone Name
    ,                        !- Space Name
    Ground,                  !- Outside Boundary Condition
    ,                        !- Outside Boundary Condition Object
    NoSun,                   !- Sun Exposure
    NoWind,                  !- Wind Exposure
    0.3,                     !- View Factor to Ground
    4,                       !- Number of Vertices
    0,0,0,  !- X,Y,Z ==> Vertex 1 {m}
    0,8,0,  !- X,Y,Z ==> Vertex 2 {m}
    10,8,0,  !- X,Y,Z ==> Vertex 3 {m}
    10,0,0;  !- X,Y,Z ==> Vertex 4 {m}

  BuildingSurface:Detailed,
    CEILING,                 !- Name
    CEILING,                 !- Surface Type
    Ceiling1,                !- Construction Name
    ZONE ONE,                !- Zone Name
    ,                        !- Space Name
    Outdoors,                !- Outside Boundary Condition
    ,                        !- Outside Boundary Condition Object
    SunExposed,              !- Sun Exposure
    WindExposed,             !- Wind Exposure
    0.5,                     !- View Factor to Ground
    4,                       !- Number of Vertices
    0,8,4,  !- X,Y,Z ==> Vertex 1 {m}
    0,0,4,  !- X,Y,Z ==> Vertex 2 {m}
    10,0,4,  !- X,Y,Z ==> Vertex 3 {m}
    10,8,4;  !- X,Y,Z ==> Vertex 4 {m}

  FenestrationSurface:Detailed,
    win1,                    !- Name
    WINDOW,                  !- Surface Type
    Dbl Clr 6mm/13mm Air,    !- Construction Name
    Zn001:Wall001,           !- Building Surface Name
    ,                        !- Outside Boundary Condition Object
    0.5,                     !- View Factor to Ground
    ,                        !- Frame and Divider Name
    1,                       !- Multiplier
    4,                       !- Number of Vertices
    0.02,0,3.8,  !- X,Y,Z ==> Vertex 1 {m}
    0.02,0,3,  !- X,Y,Z ==> Vertex 2 {m}
    9.98,0,3,  !- X,Y,Z ==> Vertex 3 {m}
    9.98,0,3.8;  !- X,Y,Z ==> Vertex 4 {m}

  FenestrationSurface:Detailed,
    win11,                   !- Name
    WINDOW,                  !- Surface Type
    Dbl Clr 6mm/13mm Air,    !- Construction Name
    Zn001:Wall001,           !- Building Surface Name
    ,                        !- Outside Boundary Condition Object
    0.5,                     !- View Factor to Ground
    ,                        !- Frame and Divider Name
    1,                       !- Multiplier
    4,                       !- Number of Vertices
    0.02,0,4,  !- X,Y,Z ==> Vertex 1 {m}
    0.02,0,3.81,  !- X,Y,Z ==> Vertex 2 {m}
    10,0,3.81,  !- X,Y,Z ==> Vertex 3 {m}
    10,0,4;  !- X,Y,Z ==> Vertex 4 {m}

  FenestrationSurface:Detailed,
    win3,                    !- Name
    WINDOW,                  !- Surface Type
    Dbl Clr 6mm/13mm Air,    !- Construction Name
    Zn001:Wall003,           !- Building Surface Name
    ,                        !- Outside Boundary Condition Object
    0.5,                     !- View Factor to Ground
    ,                        !- Frame and Divider Name
    1,                       !- Multiplier
    4,                       !- Number of Vertices
    10,8,4,  !- X,Y,Z ==> Vertex 1 {m}
    10,8,3,  !- X,Y,Z ==> Vertex 2 {m}
    0.02,8,3,  !- X,Y,Z ==> Vertex 3 {m}
    0.02,8,4;  !- X,Y,Z ==> Vertex 4 {m}

  Shading:Zone:Detailed,
    SHAS,                    !- Name
    CEILING,                 !- Base Surface Name
    TransOff,                !- Transmittance Schedule Name
    4,                       !- Number of Vertices
    0,1,4,  !- X,Y,Z ==> Vertex 1 {m}
    0,-1,4,  !- X,Y,Z ==> Vertex 2 {m}
    10,-1,4,  !- X,Y,Z ==> Vertex 3 {m}
    10,1,4;  !- X,Y,Z ==> Vertex 4 {m}

  RoomAirModelType,
    MOD1,                    !- Name
    ZONE ONE,                !- Zone Name
    ThreeNodeDisplacementVentilation,  !- Room-Air Modeling Type
    DIRECT;                  !- Air Temperature Coupling Strategy

  RoomAirSettings:ThreeNodeDisplacementVentilation,
    ZONE ONE,                !- Zone Name
    Constant - .2,           !- Gain Distribution Schedule Name
    1,                       !- Number of Plumes per Occupant
    1.1,                     !- Thermostat Height {m}
    1.1,                     !- Comfort Height {m}
    0.3;                     !- Temperature Difference Threshold for Reporting {deltaC}

  ScheduleTypeLimits,
    Any Number;              !- Name

  ScheduleTypeLimits,
    Fraction,                !- Name
    0.0,                     !- Lower Limit Value
    1.0,                     !- Upper Limit Value
    CONTINUOUS;              !- Numeric Type

  ScheduleTypeLimits,
    Temperature,             !- Name
    -60,                     !- Lower Limit Value
    200,                     !- Upper Limit Value
    CONTINUOUS,              !- Numeric Type
    Temperature;             !- Unit Type

  ScheduleTypeLimits,
    Control Type,            !- Name
    0,                       !- Lower Limit Value
    4,                       !- Upper Limit Value
    DISCRETE;                !- Numeric Type

  ScheduleTypeLimits,
    On/Off,                  !- Name
    0,                       !- Lower Limit Value
    1,                       !- Upper Limit Value
    DISCRETE;                !- Numeric Type

  ScheduleTypeLimits,
    Big Fraction,            !- Name
    ,                        !- Lower Limit Value
    ,                        !- Upper Limit Value
    CONTINUOUS;              !- Numeric Type

  Schedule:Compact,
    WORKHOURS SCHEDULE,      !- Name
    FRACTION,                !- Schedule Type Limits Name
    Through: 12/31,          !- Field 1
    For: Alldays,            !- Field 2
    Until: 7:00,0.00,        !- Field 3
    Until: 20:00,1.00,       !- Field 5
    Until: 24:00,0.00;       !- Field 7

  Schedule:Compact,
    WORKHOURS SCHEDULEG,     !- Name
    FRACTION,                !- Schedule Type Limits Name
    Through: 12/31,          !- Field 1
    For: Alldays,            !- Field 2
    Until: 7:00,0.00,        !- Field 3
    Until: 8:00,0.25,        !- Field 5
    Until: 9:00,0.75,        !- Field 7
    Until: 19:00,1.00,       !- Field 9
    Until: 20:00,0.75,       !- Field 11
    Until: 24:00,0.00;       !- Field 13

  Schedule:Compact,
    COOLINGCOILAVAILSCHED,   !- Name
    FRACTION,                !- Schedule Type Limits Name
    Through: 12/31,          !- Field 1
    For: Alldays,            !- Field 2
    Until: 7:00,0.00,        !- Field 3
    Until: 20:00,1.00,       !- Field 5
    Until: 24:00,0.00;       !- Field 7

  Schedule:Compact,
    MIN OA SCHED,            !- Name
    FRACTION,                !- Schedule Type Limits Name
    Through: 12/31,          !- Field 1
    For: Alldays,            !- Field 2
    Until: 7:00,0.00,        !- Field 3
    Until: 20:00,1.00,       !- Field 5
    Until: 24:00,0.00;       !- Field 7

  Schedule:Compact,
    REHEATCOILAVAILSCHED,    !- Name
    FRACTION,                !- Schedule Type Limits Name
    Through: 12/31,          !- Field 1
    For: Alldays,            !- Field 2
    Until: 7:00,0.00,        !- Field 3
    Until: 20:00,1.00,       !- Field 5
    Until: 24:00,0.00;       !- Field 7

  Schedule:Compact,
    FANAVAILSCHED,           !- Name
    FRACTION,                !- Schedule Type Limits Name
    Through: 12/31,          !- Field 1
    For: Alldays,            !- Field 2
    Until: 7:00,0.00,        !- Field 3
    Until: 20:00,1.00,       !- Field 5
    Until: 24:00,0.00;       !- Field 7

  Schedule:Compact,
    SEASONAL RESET SUPPLY AIR TEMP SCH19,  !- Name
    TEMPERATURE,             !- Schedule Type Limits Name
    Through: 12/31,          !- Field 1
    For: Alldays,            !- Field 2
    Until: 24:00,20.00;      !- Field 3

  Schedule:Compact,
    HEATING SETPOINTS,       !- Name
    TEMPERATURE,             !- Schedule Type Limits Name
    Through: 12/31,          !- Field 1
    For: Alldays,            !- Field 2
    Until: 24:00,19.00;      !- Field 3

  Schedule:Compact,
    COOLING SETPOINTS,       !- Name
    TEMPERATURE,             !- Schedule Type Limits Name
    Through: 12/31,          !- Field 1
    For: Alldays,            !- Field 2
    Until: 24:00,23.00;      !- Field 3

  Schedule:Compact,
    ZONE CONTROL TYPE SCHED, !- Name
    CONTROL TYPE,            !- Schedule Type Limits Name
    Through: 12/31,          !- Field 1
    For: Alldays,            !- Field 2
    Until: 24:00,4;          !- Field 3

  Schedule:Compact,
    LIVE GANG,               !- Name
    BIG FRACTION,            !- Schedule Type Limits Name
    Through: 12/31,          !- Field 1
    For: Alldays,            !- Field 2
    Until: 24:00,120.00;     !- Field 3

  Schedule:Compact,
    LEC,                     !- Name
    BIG FRACTION,            !- Schedule Type Limits Name
    Through: 12/31,          !- Field 1
    For: Alldays,            !- Field 2
    Until: 7:00,1.00,        !- Field 3
    Until: 20:00,0.40,       !- Field 5
    Until: 24:00,1.00;       !- Field 7

  Schedule:Compact,
    HEATCOILAVAILSCHED,      !- Name
    FRACTION,                !- Schedule Type Limits Name
    Through: 3/31,           !- Field 1
    For: Alldays,            !- Field 2
    Until: 7:00,0.00,        !- Field 3
    Until: 20:00,1.00,       !- Field 5
    Until: 24:00,0.00,       !- Field 7
    Through: 9/30,           !- Field 9
    For: Alldays,            !- Field 10
    Until: 24:00,1.00,       !- Field 11
    Through: 12/31,          !- Field 13
    For: Alldays,            !- Field 14
    Until: 7:00,0.00,        !- Field 15
    Until: 20:00,1.00,       !- Field 17
    Until: 24:00,0.00;       !- Field 19

  Schedule:Compact,
    CONSTANT - .2,           !- Name
    ON/OFF,                  !- Schedule Type Limits Name
    Through: 12/31,          !- Field 1
    For: Alldays,            !- Field 2
    Until: 24:00,0.20;       !- Field 3

  Schedule:Compact,
    TRANSOFF,                !- Name
    FRACTION,                !- Schedule Type Limits Name
    Through: 12/31,          !- Field 1
    For: Alldays,            !- Field 2
    Until: 24:00,0.00;       !- Field 3

  People,
    ZONE ONE People 1,       !- Name
    ZONE ONE,                !- Zone or ZoneList or Space or SpaceList Name
    WorkHours ScheduleG,     !- Number of People Schedule Name
    people,                  !- Number of People Calculation Method
    10,                      !- Number of People
    ,                        !- People per Floor Area {person/m2}
    ,                        !- Floor Area per Person {m2/person}
    0.5,                     !- Fraction Radiant
    ,                        !- Sensible Heat Fraction
    Live Gang;               !- Activity Level Schedule Name

  ElectricEquipment,
    ZONE ONE ElecEq 1,       !- Name
    ZONE ONE,                !- Zone or ZoneList or Space or SpaceList Name
    WorkHours ScheduleG,     !- Schedule Name
    EquipmentLevel,          !- Design Level Calculation Method
    2200,                    !- Design Level {W}
    ,                        !- Watts per Zone Floor Area {W/m2}
    ,                        !- Watts per Person {W/person}
    0,                       !- Fraction Latent
    0.5,                     !- Fraction Radiant
    0;                       !- Fraction Lost

  ZoneInfiltration:DesignFlowRate,
    ZONE ONE Infil 1,        !- Name
    ZONE ONE,                !- Zone or ZoneList or Space or SpaceList Name
    LEC,                     !- Schedule Name
    flow/zone,               !- Design Flow Rate Calculation Method
    0.089,                   !- Design Flow Rate {m3/s}
    ,                        !- Flow per Zone Floor Area {m3/s-m2}
    ,                        !- Flow per Exterior Surface Area {m3/s-m2}
    ,                        !- Air Changes per Hour {1/hr}
    1,                       !- Constant Term Coefficient
    0,                       !- Temperature Term Coefficient
    0,                       !- Velocity Term Coefficient
    0;                       !- Velocity Squared Term Coefficient

  Sizing:Parameters,
    1,                       !- Heating Sizing Factor
    1,                       !- Cooling Sizing Factor
    ;                        !- Timesteps in Averaging Window

  Sizing:Zone,
    ZONE ONE,                !- Zone or ZoneList Name
    SupplyAirTemperature,    !- Zone Cooling Design Supply Air Temperature Input Method
    19,                      !- Zone Cooling Design Supply Air Temperature {C}
    ,                        !- Zone Cooling Design Supply Air Temperature Difference {deltaC}
    SupplyAirTemperature,    !- Zone Heating Design Supply Air Temperature Input Method
    50,                      !- Zone Heating Design Supply Air Temperature {C}
    ,                        !- Zone Heating Design Supply Air Temperature Difference {deltaC}
    0.02,                    !- Zone Cooling Design Supply Air Humidity Ratio {kgWater/kgDryAir}
    0.004,                   !- Zone Heating Design Supply Air Humidity Ratio {kgWater/kgDryAir}
    SZ DSOA ZONE ONE,        !- Design Specification Outdoor Air Object Name
    0.0,                     !- Zone Heating Sizing Factor
    0.0,                     !- Zone Cooling Sizing Factor
    flow/zone,               !- Cooling Design Air Flow Method
    2,                       !- Cooling Design Air Flow Rate {m3/s}
    ,                        !- Cooling Minimum Air Flow per Zone Floor Area {m3/s-m2}
    ,                        !- Cooling Minimum Air Flow {m3/s}
    ,                        !- Cooling Minimum Air Flow Fraction
    DesignDay,               !- Heating Design Air Flow Method
    0,                       !- Heating Design Air Flow Rate {m3/s}
    ,                        !- Heating Maximum Air Flow per Zone Floor Area {m3/s-m2}
    ,                        !- Heating Maximum Air Flow {m3/s}
    ,                        !- Heating Maximum Air Flow Fraction
    ,                        !- Design Specification Zone Air Distribution Object Name
    No,                      !- Account for Dedicated Outdoor Air System