!-Generator IDFEditor 1.34
!-Option OriginalOrderTop UseSpecialFormat
!-NOTE: All comments with '!-' are ignored by the IDFEditor and are generated automatically.
!-      Use '!' comments if they need to be retained when using the IDFEditor.
! DisplacementVent_1ZoneOffice.idf
! Basic file description:  Single zone representing one floor of a large, open plan single story
!                          commercial office building with displacement ventilation.
!
! Highlights:              A simple example of the use of the UCSD Displacement Ventilation model
!
! Simulation Location/Run: USA_CA_SanFrancisco TMY2-23234, 2 design days, annual run period,
!                          Run Control executes the run period using the weather file
!
! Location:                San Francisco, CA
!
! Design Days:             SAN_FRANCISCO_CA_USA Annual Heating 99%, MaxDB=4.4°C
!                          SAN_FRANCISCO_CA_USA Annual Cooling (DB=>MWB) 1%, MaxDB=25.6°C MWB=16.6°C
!
! Run Period (Weather File): annual,  USA_CA_SanFrancisco TMY2-23234
!
! Run Control:             Zone and System sizing with weather file run control (no design days run)
!
! Building:  45.72 m E-W * 30.48 m N-S, ~40% glazing on all facades.
!
! Floor Area:        1393.5 m2 (~15000 ft2)
! Number of Stories: 1
!
! Internal gains description:     lighting is 1.25 watts/ft2, office equip is 1.5 watts/ft2. There is 1 occupant
!                                 per 136 ft2 of floor area. Infiltration is 1/3 air change per hour.
!
! Interzone Surfaces:             None
! Internal Mass:                  None
! People:                         110
! Lights:                         18.7 kW
! Windows:                        4: double pane: LoE TINT 6MM - AIR 6MM - CLEAR 6MM
!
! Detached Shading:               None
! Daylight:                       None
! Natural Ventilation:            None
! Compact Schedules:              Yes
!
! HVAC:                           single duct VAV with hot water reheat, single boiler, chiller and
!                                 cooling tower, supply air temperature = 19C
!
! Zonal Equipment:                AirTerminal:SingleDuct:VAV:Reheat
! Central Air Handling Equipment: Yes
! System Equipment Autosize:      Yes
! Purchased Cooling:              None
! Purchased Heating:              None
! Coils:                          Coil:Cooling:Water, Coil:Heating:Water
! Pumps:                          Pump:VariableSpeed
! Boilers:                        Boiler:HotWater
! Chillers:                       Chiller:Electric
! Towers:                         CoolingTower:SingleSpeed
!
! Results:
! Standard Reports:               All Summary Predefined Reports
! Timestep or Hourly Variables:   TimeStep
! Time bins Report:               None
! HTML Report:                    Predefined All Summary
! Environmental Emissions:        None
! Utility Tariffs:                None
! Basic file description:     Single zone representing one floor of a large, open plan single story
!                             commercial office building with displacement ventilation.
!
! Highlights:                 A simple example of the use of the UCSD Displacement Ventilation model
! Simulation Location/Run:    San Francisco, design days: 99% heating, 0.4% cooling, run period: full year
!
! Building:                   45.72 m E-W * 30.48 m N-S, ~40% glazing on all facades
!
! Internal gains description: lighting level = 13.4 W/m2, equipment = 16.1 W/m2,
!                             number of occupants = 110 (12.66 m2/occ)
!
! HVAC:                       single duct VAV with hot water reheat, single boiler, chiller and
!                             cooling tower, supply air temperature = 19C

  Version,24.1;

  Building,
    Building,                !- Name
    0,                       !- North Axis {deg}
    Suburbs,                 !- Terrain
    0.04,                    !- Loads Convergence Tolerance Value {W}
    0.4,                     !- Temperature Convergence Tolerance Value {deltaC}
    MinimalShadowing,        !- Solar Distribution
    ,                        !- Maximum Number of Warmup Days
    6;                       !- Minimum Number of Warmup Days

  Timestep,4;

  SurfaceConvectionAlgorithm:Inside,TARP;

  SurfaceConvectionAlgorithm:Outside,SimpleCombined;

  HeatBalanceAlgorithm,ConductionTransferFunction;

  ConvergenceLimits,
    1,                       !- Minimum System Timestep {minutes}
    20,                      !- Maximum HVAC Iterations
    4,                       !- Minimum Plant Iterations
    10;                      !- Maximum Plant Iterations

  SimulationControl,
    Yes,                     !- Do Zone Sizing Calculation
    Yes,                     !- Do System Sizing Calculation
    Yes,                     !- Do Plant Sizing Calculation
    no,                      !- Run Simulation for Sizing Periods
    Yes,                     !- Run Simulation for Weather File Run Periods
    No,                      !- Do HVAC Sizing Simulation for Sizing Periods
    1;                       !- Maximum Number of HVAC Sizing Simulation Passes

  RunPeriod,
    annual,                  !- Name
    1,                       !- Begin Month
    1,                       !- Begin Day of Month
    ,                        !- Begin Year
    12,                      !- End Month
    31,                      !- End Day of Month
    ,                        !- End Year
    Tuesday,                 !- Day of Week for Start Day
    Yes,                     !- Use Weather File Holidays and Special Days
    Yes,                     !- Use Weather File Daylight Saving Period
    Yes,                     !- Apply Weekend Holiday Rule
    Yes,                     !- Use Weather File Rain Indicators
    Yes;                     !- Use Weather File Snow Indicators

  Site:Location,
    SAN_FRANCISCO_CA_USA_WMO_724940,  !- Name
    37.62,                   !- Latitude {deg}
    -122.37,                 !- Longitude {deg}
    -8.00,                   !- Time Zone {hr}
    5.00;                    !- Elevation {m}

! SAN_FRANCISCO_CA_USA Annual Heating 99%, MaxDB=4.4°C

  SizingPeriod:DesignDay,
    SAN_FRANCISCO Ann Htg 99% Condns DB,  !- Name
    1,                       !- Month
    21,                      !- Day of Month
    WinterDesignDay,         !- Day Type
    4.4,                     !- Maximum Dry-Bulb Temperature {C}
    0.0,                     !- Daily Dry-Bulb Temperature Range {deltaC}
    ,                        !- Dry-Bulb Temperature Range Modifier Type
    ,                        !- Dry-Bulb Temperature Range Modifier Day Schedule Name
    Wetbulb,                 !- Humidity Condition Type
    4.4,                     !- Wetbulb or DewPoint at Maximum Dry-Bulb {C}
    ,                        !- Humidity Condition Day Schedule Name
    ,                        !- Humidity Ratio at Maximum Dry-Bulb {kgWater/kgDryAir}
    ,                        !- Enthalpy at Maximum Dry-Bulb {J/kg}
    ,                        !- Daily Wet-Bulb Temperature Range {deltaC}
    101265.,                 !- Barometric Pressure {Pa}
    2.4,                     !- Wind Speed {m/s}
    140,                     !- Wind Direction {deg}
    No,                      !- Rain Indicator
    No,                      !- Snow Indicator
    No,                      !- Daylight Saving Time Indicator
    ASHRAEClearSky,          !- Solar Model Indicator
    ,                        !- Beam Solar Day Schedule Name
    ,                        !- Diffuse Solar Day Schedule Name
    ,                        !- ASHRAE Clear Sky Optical Depth for Beam Irradiance (taub) {dimensionless}
    ,                        !- ASHRAE Clear Sky Optical Depth for Diffuse Irradiance (taud) {dimensionless}
    0.00;                    !- Sky Clearness

! SAN_FRANCISCO_CA_USA Annual Cooling (DB=>MWB) 1%, MaxDB=25.6°C MWB=16.6°C

  SizingPeriod:DesignDay,
    SAN_FRANCISCO Ann Clg 1% Condns DB=>MWB,  !- Name
    9,                       !- Month
    21,                      !- Day of Month
    SummerDesignDay,         !- Day Type
    25.6,                    !- Maximum Dry-Bulb Temperature {C}
    9,                       !- Daily Dry-Bulb Temperature Range {deltaC}
    ,                        !- Dry-Bulb Temperature Range Modifier Type
    ,                        !- Dry-Bulb Temperature Range Modifier Day Schedule Name
    Wetbulb,                 !- Humidity Condition Type
    16.6,                    !- Wetbulb or DewPoint at Maximum Dry-Bulb {C}
    ,                        !- Humidity Condition Day Schedule Name
    ,                        !- Humidity Ratio at Maximum Dry-Bulb {kgWater/kgDryAir}
    ,                        !- Enthalpy at Maximum Dry-Bulb {J/kg}
    ,                        !- Daily Wet-Bulb Temperature Range {deltaC}
    101265.,                 !- Barometric Pressure {Pa}
    5.8,                     !- Wind Speed {m/s}
    310,                     !- Wind Direction {deg}
    No,                      !- Rain Indicator
    No,                      !- Snow Indicator
    No,                      !- Daylight Saving Time Indicator
    ASHRAEClearSky,          !- Solar Model Indicator
    ,                        !- Beam Solar Day Schedule Name
    ,                        !- Diffuse Solar Day Schedule Name
    ,                        !- ASHRAE Clear Sky Optical Depth for Beam Irradiance (taub) {dimensionless}
    ,                        !- ASHRAE Clear Sky Optical Depth for Diffuse Irradiance (taud) {dimensionless}
    1.00;                    !- Sky Clearness

  Site:GroundTemperature:BuildingSurface,20,20,20,20,20,20,20,20,20,20,20,20;

  Material,
    ST01,                    !- Name
    MediumRough,             !- Roughness
    0.0254,                  !- Thickness {m}
    1.802,                   !- Conductivity {W/m-K}
    2243,                    !- Density {kg/m3}
    837,                     !- Specific Heat {J/kg-K}
    0.9,                     !- Thermal Absorptance
    0.65,                    !- Solar Absorptance
    0.65;                    !- Visible Absorptance

  Material,
    GP02,                    !- Name
    MediumSmooth,            !- Roughness
    0.015900001,             !- Thickness {m}
    0.16,                    !- Conductivity {W/m-K}
    801,                     !- Density {kg/m3}
    837,                     !- Specific Heat {J/kg-K}
    0.9,                     !- Thermal Absorptance
    0.75,                    !- Solar Absorptance
    0.75;                    !- Visible Absorptance

  Material,
    BR01,                    !- Name
    VeryRough,               !- Roughness
    0.0094999997,            !- Thickness {m}
    0.162,                   !- Conductivity {W/m-K}
    1121,                    !- Density {kg/m3}
    1464,                    !- Specific Heat {J/kg-K}
    0.9,                     !- Thermal Absorptance
    0.7,                     !- Solar Absorptance
    0.7;                     !- Visible Absorptance

  Material,
    CC24,                    !- Name
    MediumRough,             !- Roughness
    0.1016,                  !- Thickness {m}
    0.36,                    !- Conductivity {W/m-K}
    1282,                    !- Density {kg/m3}
    837,                     !- Specific Heat {J/kg-K}
    0.9,                     !- Thermal Absorptance
    0.65,                    !- Solar Absorptance
    0.65;                    !- Visible Absorptance

  Material,
    AC02,                    !- Name
    MediumSmooth,            !- Roughness
    0.0127,                  !- Thickness {m}
    0.057,                   !- Conductivity {W/m-K}
    288,                     !- Density {kg/m3}
    1339,                    !- Specific Heat {J/kg-K}
    0.9,                     !- Thermal Absorptance
    0.7,                     !- Solar Absorptance
    0.7;                     !- Visible Absorptance

  Material,
    SOIL,                    !- Name
    Rough,                   !- Roughness
    0.609600067,             !- Thickness {m}
    1.730800033,             !- Conductivity {W/m-K}
    1842.069946289,          !- Density {kg/m3}
    1088.568091,             !- Specific Heat {J/kg-K}
    0.65,                    !- Thermal Absorptance
    0.65,                    !- Solar Absorptance
    0.65;                    !- Visible Absorptance

  Material,
    6inSlab_158,             !- Name
    MediumRough,             !- Roughness
    0.1524,                  !- Thickness {m}
    0.897124,                !- Conductivity {W/m-K}
    2243,                    !- Density {kg/m3}
    837,                     !- Specific Heat {J/kg-K}
    0.9,                     !- Thermal Absorptance
    0.65,                    !- Solar Absorptance
    0.65;                    !- Visible Absorptance

  Material,
    MediumFurniture,         !- Name
    MediumSmooth,            !- Roughness
    0.57,                    !- Thickness {m}
    0.115,                   !- Conductivity {W/m-K}
    513,                     !- Density {kg/m3}
    1381,                    !- Specific Heat {J/kg-K}
    0.9,                     !- Thermal Absorptance
    0.78,                    !- Solar Absorptance
    0.78;                    !- Visible Absorptance

! STEEL SIDING LW

  Material,
    HF-A3,                   !- Name
    Smooth,                  !- Roughness
    1.5000000E-03,           !- Thickness {m}
    44.96960,                !- Conductivity {W/m-K}
    7689.000,                !- Density {kg/m3}
    418.0000,                !- Specific Heat {J/kg-K}
    0.9000000,               !- Thermal Absorptance
    0.2000000,               !- Solar Absorptance
    0.2000000;               !- Visible Absorptance

  Material,
    B5-3,                    !- Name
    VeryRough,               !- Roughness
    0.0075,                  !- Thickness {m}
    0.025,                   !- Conductivity {W/m-K}
    91,                      !- Density {kg/m3}
    837,                     !- Specific Heat {J/kg-K}
    0.9,                     !- Thermal Absorptance
    0.7,                     !- Solar Absorptance
    0.7;                     !- Visible Absorptance

  Material:NoMass,
    Insul11-Wall,            !- Name
    Rough,                   !- Roughness
    1.936,                   !- Thermal Resistance {m2-K/W}
    0.65,                    !- Thermal Absorptance
    0.65,                    !- Solar Absorptance
    0.65;                    !- Visible Absorptance

  Material:NoMass,
    Insul13-Wall,            !- Name
    Rough,                   !- Roughness
    2.288,                   !- Thermal Resistance {m2-K/W}
    0.65,                    !- Thermal Absorptance
    0.65,                    !- Solar Absorptance
    0.65;                    !- Visible Absorptance

  Material:NoMass,
    Insul11-Roof,            !- Name
    Rough,                   !- Roughness
    1.936,                   !- Thermal Resistance {m2-K/W}
    0.65,                    !- Thermal Absorptance
    0.65,                    !- Solar Absorptance
    0.65;                    !- Visible Absorptance

  Material:NoMass,
    Insul19-Roof,            !- Name
    Rough,                   !- Roughness
    1044,                    !- Thermal Resistance {m2-K/W}
    0.65,                    !- Thermal Absorptance
    0.65,                    !- Solar Absorptance
    0.65;                    !- Visible Absorptance

  Material:NoMass,
    CP01,                    !- Name
    Rough,                   !- Roughness
    0.367,                   !- Thermal Resistance {m2-K/W}
    0.9,                     !- Thermal Absorptance
    0.75,                    !- Solar Absorptance
    0.75;                    !- Visible Absorptance

  Material:AirGap,
    AL21,                    !- Name
    0.157;                   !- Thermal Resistance {m2-K/W}

  Material:AirGap,
    AL33,                    !- Name
    0.162;                   !- Thermal Resistance {m2-K/W}

  WindowMaterial:Glazing,
    CLEAR 6MM,               !- Name
    SpectralAverage,         !- Optical Data Type
    ,                        !- Window Glass Spectral Data Set Name
    0.006,                   !- Thickness {m}
    0.775,                   !- Solar Transmittance at Normal Incidence
    0.071,                   !- Front Side Solar Reflectance at Normal Incidence
    0.071,                   !- Back Side Solar Reflectance at Normal Incidence
    0.881,                   !- Visible Transmittance at Normal Incidence
    0.08,                    !- Front Side Visible Reflectance at Normal Incidence
    0.08,                    !- Back Side Visible Reflectance at Normal Incidence
    0,                       !- Infrared Transmittance at Normal Incidence
    0.84,                    !- Front Side Infrared Hemispherical Emissivity
    0.84,                    !- Back Side Infrared Hemispherical Emissivity
    0.9;                     !- Conductivity {W/m-K}

! ID 550

  WindowMaterial:Glazing,
    LoE SPEC SEL TINT 6MM,   !- Name
    SpectralAverage,         !- Optical Data Type
    ,                        !- Window Glass Spectral Data Set Name
    0.006,                   !- Thickness {m}
    0.260,                   !- Solar Transmittance at Normal Incidence
    0.140,                   !- Front Side Solar Reflectance at Normal Incidence
    0.410,                   !- Back Side Solar Reflectance at Normal Incidence
    0.460,                   !- Visible Transmittance at Normal Incidence
    0.060,                   !- Front Side Visible Reflectance at Normal Incidence
    0.040,                   !- Back Side Visible Reflectance at Normal Incidence
    0.0,                     !- Infrared Transmittance at Normal Incidence
    0.84,                    !- Front Side Infrared Hemispherical Emissivity
    0.03,                    !- Back Side Infrared Hemispherical Emissivity
    0.9;                     !- Conductivity {W/m-K}

! ID 270

  WindowMaterial:Glazing,
    REF D TINT 6MM,          !- Name
    SpectralAverage,         !- Optical Data Type
    ,                        !- Window Glass Spectral Data Set Name
    0.006,                   !- Thickness {m}
    0.300,                   !- Solar Transmittance at Normal Incidence
    0.140,                   !- Front Side Solar Reflectance at Normal Incidence
    0.360,                   !- Back Side Solar Reflectance at Normal Incidence
    0.250,                   !- Visible Transmittance at Normal Incidence
    0.180,                   !- Front Side Visible Reflectance at Normal Incidence
    0.450,                   !- Back Side Visible Reflectance at Normal Incidence
    0.0,                     !- Infrared Transmittance at Normal Incidence
    0.84,                    !- Front Side Infrared Hemispherical Emissivity
    0.82,                    !- Back Side Infrared Hemispherical Emissivity
    0.9;                     !- Conductivity {W/m-K}

! ID 451

  WindowMaterial:Glazing,
    LoE TINT 6MM,            !- Name
    SpectralAverage,         !- Optical Data Type
    ,                        !- Window Glass Spectral Data Set Name
    0.006,                   !- Thickness {m}
    0.360,                   !- Solar Transmittance at Normal Incidence
    0.093,                   !- Front Side Solar Reflectance at Normal Incidence
    0.200,                   !- Back Side Solar Reflectance at Normal Incidence
    0.500,                   !- Visible Transmittance at Normal Incidence
    0.035,                   !- Front Side Visible Reflectance at Normal Incidence
    0.054,                   !- Back Side Visible Reflectance at Normal Incidence
    0.0,                     !- Infrared Transmittance at Normal Incidence
    0.84,                    !- Front Side Infrared Hemispherical Emissivity
    0.10,                    !- Back Side Infrared Hemispherical Emissivity
    0.9;                     !- Conductivity {W/m-K}

! ID 501

  WindowMaterial:Glazing,
    LoE SPEC SEL CLEAR 6MM,  !- Name
    SpectralAverage,         !- Optical Data Type
    ,                        !- Window Glass Spectral Data Set Name
    0.006,                   !- Thickness {m}
    0.430,                   !- Solar Transmittance at Normal Incidence
    0.300,                   !- Front Side Solar Reflectance at Normal Incidence
    0.420,                   !- Back Side Solar Reflectance at Normal Incidence
    0.770,                   !- Visible Transmittance at Normal Incidence
    0.070,                   !- Front Side Visible Reflectance at Normal Incidence
    0.060,                   !- Back Side Visible Reflectance at Normal Incidence
    0.0,                     !- Infrared Transmittance at Normal Incidence
    0.84,                    !- Front Side Infrared Hemispherical Emissivity
    0.03,                    !- Back Side Infrared Hemispherical Emissivity
    0.9;                     !- Conductivity {W/m-K}

  WindowMaterial:Gas,
    AIR 6MM,                 !- Name
    Air,                     !- Gas Type
    0.0063;                  !- Thickness {m}

  WindowMaterial:Gas,
    ARGON 13MM,              !- Name
    Argon,                   !- Gas Type
    0.0127;                  !- Thickness {m}

  Construction,
    WALL-1,                  !- Name
    ST01,                    !- Outside Layer
    Insul11-Wall,            !- Layer 2
    AL21,                    !- Layer 3
    GP02;                    !- Layer 4

  Construction,
    ROOF-1,                  !- Name
    BR01,                    !- Outside Layer
    Insul19-Roof,            !- Layer 2
    CC24;                    !- Layer 3

  Construction,
    FLOOR-1,                 !- Name
    B5-3,                    !- Outside Layer
    CC24,                    !- Layer 2
    AL33,                    !- Layer 3
    HF-A3,                   !- Layer 4
    CP01;                    !- Layer 5

  Construction,
    Medium Furniture,        !- Name
    MediumFurniture;         !- Outside Layer

  Construction,
    T-24Window_rshg41,       !- Name
    LoE TINT 6MM,            !- Outside Layer
    AIR 6MM,                 !- Layer 2
    CLEAR 6MM;               !- Layer 3

  Zone,
    ZONE1,                   !- Name
    0,                       !- Direction of Relative North {deg}
    0,                       !- X Origin {m}
    0,                       !- Y Origin {m}
    15.240,                  !- Z Origin {m}
    1,                       !- Type
    1,                       !- Multiplier
    2.7432,                  !- Ceiling Height {m}
    3822.77;                 !- Volume {m3}

  GlobalGeometryRules,
    UpperLeftCorner,         !- Starting Vertex Position
    CounterClockWise,        !- Vertex Entry Direction
    Relative;                !- Coordinate System

  BuildingSurface:Detailed,
    EW1-ZONE1,               !- Name
    WALL,                    !- Surface Type
    WALL-1,                  !- Construction Name
    ZONE1,                   !- Zone Name
    ,                        !- Space Name
    Outdoors,                !- Outside Boundary Condition
    ,                        !- Outside Boundary Condition Object
    SunExposed,              !- Sun Exposure
    WindExposed,             !- Wind Exposure
    0.50,                    !- View Factor to Ground
    4,                       !- Number of Vertices
    45.720,30.480,2.7432,  !- X,Y,Z ==> Vertex 1 {m}
    45.720,30.480,0.000,  !- X,Y,Z ==> Vertex 2 {m}
    0.000,30.480,0.000,  !- X,Y,Z ==> Vertex 3 {m}
    0.000,30.480,2.7432;  !- X,Y,Z ==> Vertex 4 {m}

  BuildingSurface:Detailed,
    RF-ZONE1,                !- Name
    ROOF,                    !- Surface Type
    ROOF-1,                  !- Construction Name
    ZONE1,                   !- Zone Name
    ,                        !- Space Name
    Outdoors,                !- Outside Boundary Condition
    ,                        !- Outside Boundary Condition Object
    SunExposed,              !- Sun Exposure
    WindExposed,             !- Wind Exposure
    0.00,                    !- View Factor to Ground
    4,                       !- Number of Vertices
    45.72,0,2.7432,  !- X,Y,Z ==> Vertex 1 {m}
    45.720,30.480,2.7432,  !- X,Y,Z ==> Vertex 2 {m}
    0.000,30.480,2.7432,  !- X,Y,Z ==> Vertex 3 {m}
    0,0,2.7432;  !- X,Y,Z ==> Vertex 4 {m}

  BuildingSurface:Detailed,
    F-ZONE1,                 !- Name
    FLOOR,                   !- Surface Type
    FLOOR-1,                 !- Construction Name
    ZONE1,                   !- Zone Name
    ,                        !- Space Name
    Ground,                  !- Outside Boundary Condition
    ,                        !- Outside Boundary Condition Object
    NoSun,                   !- Sun Exposure
    NoWind,                  !- Wind Exposure
    0.00,                    !- View Factor to Ground
    4,                       !- Number of Vertices
    0,0,0.000,  !- X,Y,Z ==> Vertex 1 {m}
    0.000,30.480,0.000,  !- X,Y,Z ==> Vertex 2 {m}
    45.720,30.480,0.000,  !- X,Y,Z ==> Vertex 3 {m}
    45.72,0,0.000;  !- X,Y,Z ==> Vertex 4 {m}

  BuildingSurface:Detailed,
    EW1-PER-2T,              !- Name
    WALL,                    !- Surface Type
    WALL-1,                  !- Construction Name
    ZONE1,                   !- Zone Name
    ,                        !- Space Name
    Outdoors,                !- Outside Boundary Condition
    ,                        !- Outside Boundary Condition Object
    SunExposed,              !- Sun Exposure
    WindExposed,             !- Wind Exposure
    0.50,                    !- View Factor to Ground
    4,                       !- Number of Vertices
    45.720,0.000,2.7432,  !- X,Y,Z ==> Vertex 1 {m}
    45.720,0.000,0.000,  !- X,Y,Z ==> Vertex 2 {m}
    45.720,30.480,0.000,  !- X,Y,Z ==> Vertex 3 {m}
    45.720,30.480,2.7432;  !- X,Y,Z ==> Vertex 4 {m}

  BuildingSurface:Detailed,
    EW1-PER-3T,              !- Name
    WALL,                    !- Surface Type
    WALL-1,                  !- Construction Name
    ZONE1,                   !- Zone Name
    ,                        !- Space Name
    Outdoors,                !- Outside Boundary Condition
    ,                        !- Outside Boundary Condition Object
    SunExposed,              !- Sun Exposure
    WindExposed,             !- Wind Exposure
    0.50,                    !- View Factor to Ground
    4,                       !- Number of Vertices
    0.000,0.000,2.7432,  !- X,Y,Z ==> Vertex 1 {m}
    0.000,0.000,0.000,  !- X,Y,Z ==> Vertex 2 {m}
    45.720,0.000,0.000,  !- X,Y,Z ==> Vertex 3 {m}
    45.720,0.000,2.7432;  !- X,Y,Z ==> Vertex 4 {m}

  BuildingSurface:Detailed,
    EW1-PER-4T,              !- Name
    WALL,                    !- Surface Type
    WALL-1,                  !- Construction Name
    ZONE1,                   !- Zone Name
    ,                        !- Space Name
    Outdoors,                !- Outside Boundary Condition
    ,                        !- Outside Boundary Condition Object
    SunExposed,              !- Sun Exposure
    WindExposed,             !- Wind Exposure
    0.50,                    !- View Factor to Ground
    4,                       !- Number of Vertices
    0.000,30.480,2.7432,  !- X,Y,Z ==> Vertex 1 {m}
    0.000,30.480,0.000,  !- X,Y,Z ==> Vertex 2 {m}
    0.000,0.000,0.000,  !- X,Y,Z ==> Vertex 3 {m}
    0.000,0.000,2.7432;  !- X,Y,Z ==> Vertex 4 {m}

  FenestrationSurface:Detailed,
    W1-ZONE1,                !- Name
    WINDOW,                  !- Surface Type
    T-24Window_rshg41,       !- Construction Name
    EW1-ZONE1,               !- Building Surface Name
    ,                        !- Outside Boundary Condition Object
    0.50,                    !- View Factor to Ground
    ,                        !- Frame and Divider Name
    1.00,                    !- Multiplier
    4,                       !- Number of Vertices
    45.720,30.480,2.134,  !- X,Y,Z ==> Vertex 1 {m}
    45.720,30.480,0.9148,  !- X,Y,Z ==> Vertex 2 {m}
    0.000,30.480,0.9148,  !- X,Y,Z ==> Vertex 3 {m}
    0.000,30.480,2.134;  !- X,Y,Z ==> Vertex 4 {m}

  FenestrationSurface:Detailed,
    W1-PER-2T,               !- Name
    WINDOW,                  !- Surface Type
    T-24Window_rshg41,       !- Construction Name
    EW1-PER-2T,              !- Building Surface Name
    ,                        !- Outside Boundary Condition Object
    0.50,                    !- View Factor to Ground
    ,                        !- Frame and Divider Name
    1.00,                    !- Multiplier
    4,                       !- Number of Vertices
    45.720,0.000,2.134,  !- X,Y,Z ==> Vertex 1 {m}
    45.720,0.000,0.9148,  !- X,Y,Z ==> Vertex 2 {m}
    45.720,30.480,0.9148,  !- X,Y,Z ==> Vertex 3 {m}
    45.720,30.480,2.134;  !- X,Y,Z ==> Vertex 4 {m}

  FenestrationSurface:Detailed,
    W1-PER-3T,               !- Name
    WINDOW,                  !- Surface Type
    T-24Window_rshg41,       !- Construction Name
    EW1-PER-3T,              !- Building Surface Name
    ,                        !- Outside Boundary Condition Object
    0.50,                    !- View Factor to Ground
    ,                        !- Frame and Divider Name
    1.00,                    !- Multiplier
    4,                       !- Number of Vertices
    0.000,0.000,2.134,  !- X,Y,Z ==> Vertex 1 {m}
    0.000,0.000,0.9148,  !- X,Y,Z ==> Vertex 2 {m}
    45.720,0.000,0.9148,  !- X,Y,Z ==> Vertex 3 {m}
    45.720,0.000,2.134;  !- X,Y,Z ==> Vertex 4 {m}

  FenestrationSurface:Detailed,
    W1-PER-4T,               !- Name
    WINDOW,                  !- Surface Type
    T-24Window_rshg41,       !- Construction Name
    EW1-PER-4T,              !- Building Surface Name
    ,                        !- Outside Boundary Condition Object
    0.50,                    !- View Factor to Ground
    ,                        !- Frame and Divider Name
    1.00,                    !- Multiplier
    4,                       !- Number of Vertices
    0.000,30.480,2.134,  !- X,Y,Z ==> Vertex 1 {m}