!-Generator IDFEditor 1.50
!-Option SortedOrder UseSpecialFormat
!-NOTE: All comments with '!-' are ignored by the IDFEditor and are generated automatically.
!-      Use '!' comments if they need to be retained when using the IDFEditor.
!-   ===========  ALL OBJECTS IN CLASS: VERSION ===========
! DOAS_wNeutralSupplyAir_wFanCoilUnits.idf
! Basic file description:  1 story building divided into 4 exterior and one interior conditioned zones and plenum
!                          Illustrates the sizing and use of a Dedicated Outdoor Air System with neutral supply air
!                          condition and fan coil units serving each thermal zone.
!
! Highlights:              DOAS with Neutral Supply Air Condition
!
! Simulation Location/Run: CHICAGO_IL_USA TMY2-94846, 2 design days, weather file annual runs,
!                          Run Control executes the run periods using the weather file
!
! Location:                Chicago, IL
!
! Design Days:             CHICAGO_IL_USA Annual Heating 99% Design Conditions DB, MaxDB= -17.3°C
!                          CHICAGO_IL_USA Annual Cooling 1% Design Conditions, MaxDB=  31.5°C MCWB = 23.0°C
!
! Run Period (Weather File): Annual, CHICAGO_IL_USA TMY2-94846
!
! Run Control:             Zone and System sizing with weather file run control and two design days run
!
! Building: Single floor rectangular building 100 ft x 50 ft. 5 zones - 4 exterior, 1 interior, zone height 8 feet.
!           Exterior zone depth is 12 feet. There is a 2 foot high return plenum: the overall building height is
!           10 feet. There are windows on all 4 facades; the south and north facades have glass doors.
!           The south facing glass is shaded by overhangs. The walls are woodshingle over plywood, R11 insulation,
!           and gypboard. The roof is a gravel built up roof with R-3 mineral board insulation and plywood sheathing.
!           The windows are of various single and double pane construction with 3mm and 6mm glass and either 6mm or
!           13mm argon or air gap.  The window to wall ratio is approximately 0.29.
!           The south wall and door have overhangs.
!
!           The building is oriented 30 degrees east of north.
!
! Floor Area:        463.60 m2 (5000 ft2)
! Number of Stories: 1
!
!
! Detached Shading:               None
! Daylight:                       None
! Natural Ventilation:            None
! Compact Schedules:              Yes
!
! HVAC:                           Four pipe fan coil system with dedicated outdoor air system and neutral air supply,
!                                 hot water heating coils, and chilled water cooling coils. Central Plant is single
!                                 hot water boiler, electric compression chiller with water cooled condenser.
!                                 All equipment is autosized.
!
! Zonal Equipment:                Yes
! Central Air Handling Equipment: Yes
! System Equipment Autosize:      Yes
! Purchased Cooling:              None
! Purchased Heating:              None
! Water Coils:                    Yes
! Pumps:                          Yes
! Boilers:                        Yes
! Chillers:                       Yes
!
! Results:
! Standard Reports:               All
! Timestep or Hourly Variables:   Hourly
! Time bins Report:               None
! HTML Report:                    Yes
! Environmental Emissions:        None
! Utility Tariffs:                None

  Version,24.1;

!-   ===========  ALL OBJECTS IN CLASS: TIMESTEP ===========

  Timestep,4;

!-   ===========  ALL OBJECTS IN CLASS: SIMULATIONCONTROL ===========

  SimulationControl,
    Yes,                     !- Do Zone Sizing Calculation
    Yes,                     !- Do System Sizing Calculation
    Yes,                     !- Do Plant Sizing Calculation
    Yes,                     !- Run Simulation for Sizing Periods
    Yes,                     !- Run Simulation for Weather File Run Periods
    No,                      !- Do HVAC Sizing Simulation for Sizing Periods
    1;                       !- Maximum Number of HVAC Sizing Simulation Passes

!-   ===========  ALL OBJECTS IN CLASS: BUILDING ===========

  Building,
    Building,                !- Name
    30,                      !- North Axis {deg}
    City,                    !- Terrain
    0.04,                    !- Loads Convergence Tolerance Value {W}
    0.4,                     !- Temperature Convergence Tolerance Value {deltaC}
    FullExterior,            !- Solar Distribution
    25,                      !- Maximum Number of Warmup Days
    6;                       !- Minimum Number of Warmup Days

!-   ===========  ALL OBJECTS IN CLASS: SHADOWCALCULATION ===========

  ShadowCalculation,
    PolygonClipping,         !- Shading Calculation Method
    Periodic,                !- Shading Calculation Update Frequency Method
    20,                      !- Shading Calculation Update Frequency
    15000;                   !- Maximum Figures in Shadow Overlap Calculations

!-   ===========  ALL OBJECTS IN CLASS: HEATBALANCEALGORITHM ===========

  HeatBalanceAlgorithm,ConductionTransferFunction,200;

!-   ===========  ALL OBJECTS IN CLASS: ZONEAIRHEATBALANCEALGORITHM ===========

  ZoneAirHeatBalanceAlgorithm,
    AnalyticalSolution;      !- Algorithm

!-   ===========  ALL OBJECTS IN CLASS: SITE:LOCATION ===========

  Site:Location,
    Chicago Ohare Intl Ap,   !- Name
    41.98,                   !- Latitude {deg}
    -87.92,                  !- Longitude {deg}
    -6,                      !- Time Zone {hr}
    201;                     !- Elevation {m}

!-   ===========  ALL OBJECTS IN CLASS: SIZINGPERIOD:DESIGNDAY ===========

  SizingPeriod:DesignDay,
    CHICAGO_IL_USA Annual Cooling 1% Design Conditions DB/MCWB,  !- Name
    7,                       !- Month
    21,                      !- Day of Month
    SummerDesignDay,         !- Day Type
    31.5,                    !- Maximum Dry-Bulb Temperature {C}
    10.7,                    !- Daily Dry-Bulb Temperature Range {deltaC}
    DefaultMultipliers,      !- Dry-Bulb Temperature Range Modifier Type
    ,                        !- Dry-Bulb Temperature Range Modifier Day Schedule Name
    Wetbulb,                 !- Humidity Condition Type
    23,                      !- Wetbulb or DewPoint at Maximum Dry-Bulb {C}
    ,                        !- Humidity Condition Day Schedule Name
    ,                        !- Humidity Ratio at Maximum Dry-Bulb {kgWater/kgDryAir}
    ,                        !- Enthalpy at Maximum Dry-Bulb {J/kg}
    ,                        !- Daily Wet-Bulb Temperature Range {deltaC}
    99063,                   !- Barometric Pressure {Pa}
    5.3,                     !- Wind Speed {m/s}
    230,                     !- Wind Direction {deg}
    No,                      !- Rain Indicator
    No,                      !- Snow Indicator
    No,                      !- Daylight Saving Time Indicator
    ASHRAEClearSky,          !- Solar Model Indicator
    ,                        !- Beam Solar Day Schedule Name
    ,                        !- Diffuse Solar Day Schedule Name
    ,                        !- ASHRAE Clear Sky Optical Depth for Beam Irradiance (taub) {dimensionless}
    ,                        !- ASHRAE Clear Sky Optical Depth for Diffuse Irradiance (taud) {dimensionless}
    1;                       !- Sky Clearness

  SizingPeriod:DesignDay,
    CHICAGO_IL_USA Annual Heating 99% Design Conditions DB,  !- Name
    1,                       !- Month
    21,                      !- Day of Month
    WinterDesignDay,         !- Day Type
    -17.3,                   !- Maximum Dry-Bulb Temperature {C}
    0,                       !- Daily Dry-Bulb Temperature Range {deltaC}
    DefaultMultipliers,      !- Dry-Bulb Temperature Range Modifier Type
    ,                        !- Dry-Bulb Temperature Range Modifier Day Schedule Name
    Wetbulb,                 !- Humidity Condition Type
    -17.3,                   !- Wetbulb or DewPoint at Maximum Dry-Bulb {C}
    ,                        !- Humidity Condition Day Schedule Name
    ,                        !- Humidity Ratio at Maximum Dry-Bulb {kgWater/kgDryAir}
    ,                        !- Enthalpy at Maximum Dry-Bulb {J/kg}
    ,                        !- Daily Wet-Bulb Temperature Range {deltaC}
    99063,                   !- Barometric Pressure {Pa}
    4.9,                     !- Wind Speed {m/s}
    270,                     !- Wind Direction {deg}
    No,                      !- Rain Indicator
    No,                      !- Snow Indicator
    No,                      !- Daylight Saving Time Indicator
    ASHRAEClearSky,          !- Solar Model Indicator
    ,                        !- Beam Solar Day Schedule Name
    ,                        !- Diffuse Solar Day Schedule Name
    ,                        !- ASHRAE Clear Sky Optical Depth for Beam Irradiance (taub) {dimensionless}
    ,                        !- ASHRAE Clear Sky Optical Depth for Diffuse Irradiance (taud) {dimensionless}
    0;                       !- Sky Clearness

!-   ===========  ALL OBJECTS IN CLASS: RUNPERIOD ===========

  RunPeriod,
    Run Period 1,            !- Name
    1,                       !- Begin Month
    1,                       !- Begin Day of Month
    2006,                    !- Begin Year
    12,                      !- End Month
    31,                      !- End Day of Month
    2006,                    !- End Year
    Sunday,                  !- Day of Week for Start Day
    No,                      !- Use Weather File Holidays and Special Days
    No,                      !- Use Weather File Daylight Saving Period
    No,                      !- Apply Weekend Holiday Rule
    Yes,                     !- Use Weather File Rain Indicators
    Yes;                     !- Use Weather File Snow Indicators

!-   ===========  ALL OBJECTS IN CLASS: SITE:GROUNDTEMPERATURE:BUILDINGSURFACE ===========

  Site:GroundTemperature:BuildingSurface,,,,,,,,,,,,;

!-   ===========  ALL OBJECTS IN CLASS: SCHEDULETYPELIMITS ===========

  ScheduleTypeLimits,
    Fraction,                !- Name
    0,                       !- Lower Limit Value
    1,                       !- Upper Limit Value
    CONTINUOUS;              !- Numeric Type

  ScheduleTypeLimits,
    SPACE1-1 Thermal Zone Thermostat Schedule Type Limits,  !- Name
    0,                       !- Lower Limit Value
    4,                       !- Upper Limit Value
    DISCRETE;                !- Numeric Type

  ScheduleTypeLimits,
    Temperature,             !- Name
    -60,                     !- Lower Limit Value
    200,                     !- Upper Limit Value
    CONTINUOUS,              !- Numeric Type
    temperature;             !- Unit Type

  ScheduleTypeLimits,
    SPACE2-1 Thermal Zone Thermostat Schedule Type Limits,  !- Name
    0,                       !- Lower Limit Value
    4,                       !- Upper Limit Value
    DISCRETE;                !- Numeric Type

  ScheduleTypeLimits,
    SPACE3-1 Thermal Zone Thermostat Schedule Type Limits,  !- Name
    0,                       !- Lower Limit Value
    4,                       !- Upper Limit Value
    DISCRETE;                !- Numeric Type

  ScheduleTypeLimits,
    SPACE4-1 Thermal Zone Thermostat Schedule Type Limits,  !- Name
    0,                       !- Lower Limit Value
    4,                       !- Upper Limit Value
    DISCRETE;                !- Numeric Type

  ScheduleTypeLimits,
    SPACE5-1 Thermal Zone Thermostat Schedule Type Limits,  !- Name
    0,                       !- Lower Limit Value
    4,                       !- Upper Limit Value
    DISCRETE;                !- Numeric Type

  ScheduleTypeLimits,
    ActivityLevel,           !- Name
    0,                       !- Lower Limit Value
    ,                        !- Upper Limit Value
    Continuous,              !- Numeric Type
    activitylevel;           !- Unit Type

  ScheduleTypeLimits,
    Any Number;              !- Name

  ScheduleTypeLimits,
    FlowRate,                !- Name
    0,                       !- Lower Limit Value
    10,                      !- Upper Limit Value
    CONTINUOUS;              !- Numeric Type

  ScheduleTypeLimits,
    HVACTemplate Any Number, !- Name
    ,                        !- Lower Limit Value
    ,                        !- Upper Limit Value
    ,                        !- Numeric Type
    temperature;             !- Unit Type

  ScheduleTypeLimits,
    On/Off,                  !- Name
    0,                       !- Lower Limit Value
    1,                       !- Upper Limit Value
    DISCRETE,                !- Numeric Type
    availability;            !- Unit Type

  ScheduleTypeLimits,
    OnOff,                   !- Name
    0,                       !- Lower Limit Value
    1,                       !- Upper Limit Value
    Discrete,                !- Numeric Type
    availability;            !- Unit Type

  ScheduleTypeLimits,
    Temperature_Limits,      !- Name
    -60,                     !- Lower Limit Value
    200,                     !- Upper Limit Value
    Continuous,              !- Numeric Type
    temperature;             !- Unit Type

  ScheduleTypeLimits,
    Temperature_Limits 1,    !- Name
    -60,                     !- Lower Limit Value
    200,                     !- Upper Limit Value
    Continuous,              !- Numeric Type
    temperature;             !- Unit Type

  ScheduleTypeLimits,
    Temperature_Limits 2,    !- Name
    -60,                     !- Lower Limit Value
    200,                     !- Upper Limit Value
    Continuous,              !- Numeric Type
    temperature;             !- Unit Type

  ScheduleTypeLimits,
    Temperature_Limits 3,    !- Name
    -60,                     !- Lower Limit Value
    200,                     !- Upper Limit Value
    Continuous,              !- Numeric Type
    temperature;             !- Unit Type

  ScheduleTypeLimits,
    {3c3cc2e9-3703-4a02-b268-4b59d8c003b9};  !- Name

  ScheduleTypeLimits,
    {99719a4d-17d7-4033-9cf7-59ec5a1d3141};  !- Name

  ScheduleTypeLimits,
    Humidity,                !- Name
    0,                       !- Lower Limit Value
    100,                     !- Upper Limit Value
    CONTINUOUS;              !- Numeric Type

!-   ===========  ALL OBJECTS IN CLASS: SCHEDULE:DAY:INTERVAL ===========

  Schedule:Day:Interval,
    Chilled_Water_Temperature_Default,  !- Name
    Temperature_Limits,      !- Schedule Type Limits Name
    No,                      !- Interpolate to Timestep
    24:00,                   !- Time 1
    6.7;                     !- Value Until Time 1

  Schedule:Day:Interval,
    Chilled_Water_Temperature_Summer_Design_Day,  !- Name
    Temperature_Limits,      !- Schedule Type Limits Name
    No,                      !- Interpolate to Timestep
    24:00,                   !- Time 1
    6.7;                     !- Value Until Time 1

  Schedule:Day:Interval,
    Chilled_Water_Temperature_Winter_Design_Day,  !- Name
    Temperature_Limits,      !- Schedule Type Limits Name
    No,                      !- Interpolate to Timestep
    24:00,                   !- Time 1
    6.7;                     !- Value Until Time 1

  Schedule:Day:Interval,
    Hot_Water_Temperature_Default,  !- Name
    Temperature_Limits,      !- Schedule Type Limits Name
    No,                      !- Interpolate to Timestep
    24:00,                   !- Time 1
    67;                      !- Value Until Time 1

  Schedule:Day:Interval,
    Hot_Water_Temperature_Summer_Design_Day,  !- Name
    Temperature_Limits,      !- Schedule Type Limits Name
    No,                      !- Interpolate to Timestep
    24:00,                   !- Time 1
    67;                      !- Value Until Time 1

  Schedule:Day:Interval,
    Hot_Water_Temperature_Winter_Design_Day,  !- Name
    Temperature_Limits,      !- Schedule Type Limits Name
    No,                      !- Interpolate to Timestep
    24:00,                   !- Time 1
    67;                      !- Value Until Time 1

!-   ===========  ALL OBJECTS IN CLASS: SCHEDULE:WEEK:DAILY ===========

  Schedule:Week:Daily,
    Chilled_Water_Temperature Week Rule - Jan1-Dec31,  !- Name
    Chilled_Water_Temperature_Default,  !- Sunday Schedule:Day Name
    Chilled_Water_Temperature_Default,  !- Monday Schedule:Day Name
    Chilled_Water_Temperature_Default,  !- Tuesday Schedule:Day Name
    Chilled_Water_Temperature_Default,  !- Wednesday Schedule:Day Name
    Chilled_Water_Temperature_Default,  !- Thursday Schedule:Day Name
    Chilled_Water_Temperature_Default,  !- Friday Schedule:Day Name
    Chilled_Water_Temperature_Default,  !- Saturday Schedule:Day Name
    Chilled_Water_Temperature_Default,  !- Holiday Schedule:Day Name
    Chilled_Water_Temperature_Summer_Design_Day,  !- SummerDesignDay Schedule:Day Name
    Chilled_Water_Temperature_Winter_Design_Day,  !- WinterDesignDay Schedule:Day Name
    Chilled_Water_Temperature_Default,  !- CustomDay1 Schedule:Day Name
    Chilled_Water_Temperature_Default;  !- CustomDay2 Schedule:Day Name

  Schedule:Week:Daily,
    Hot_Water_Temperature Week Rule - Jan1-Dec31,  !- Name
    Hot_Water_Temperature_Default,  !- Sunday Schedule:Day Name
    Hot_Water_Temperature_Default,  !- Monday Schedule:Day Name
    Hot_Water_Temperature_Default,  !- Tuesday Schedule:Day Name
    Hot_Water_Temperature_Default,  !- Wednesday Schedule:Day Name
    Hot_Water_Temperature_Default,  !- Thursday Schedule:Day Name
    Hot_Water_Temperature_Default,  !- Friday Schedule:Day Name
    Hot_Water_Temperature_Default,  !- Saturday Schedule:Day Name
    Hot_Water_Temperature_Default,  !- Holiday Schedule:Day Name
    Hot_Water_Temperature_Summer_Design_Day,  !- SummerDesignDay Schedule:Day Name
    Hot_Water_Temperature_Winter_Design_Day,  !- WinterDesignDay Schedule:Day Name
    Hot_Water_Temperature_Default,  !- CustomDay1 Schedule:Day Name
    Hot_Water_Temperature_Default;  !- CustomDay2 Schedule:Day Name

!-   ===========  ALL OBJECTS IN CLASS: SCHEDULE:YEAR ===========

  Schedule:Year,
    Chilled_Water_Temperature,  !- Name
    Temperature_Limits,      !- Schedule Type Limits Name
    Chilled_Water_Temperature Week Rule - Jan1-Dec31,  !- Schedule:Week Name 1
    1,                       !- Start Month 1
    1,                       !- Start Day 1
    12,                      !- End Month 1
    31;                      !- End Day 1

  Schedule:Year,
    Hot_Water_Temperature,   !- Name
    Temperature_Limits,      !- Schedule Type Limits Name
    Hot_Water_Temperature Week Rule - Jan1-Dec31,  !- Schedule:Week Name 1
    1,                       !- Start Month 1
    1,                       !- Start Day 1
    12,                      !- End Month 1
    31;                      !- End Day 1

!-   ===========  ALL OBJECTS IN CLASS: SCHEDULE:COMPACT ===========

  Schedule:Compact,
    LIGHTS-1,                !- Name
    Fraction,                !- Schedule Type Limits Name
    Through: 12/31,          !- Field 1
    For: WeekDays SummerDesignDay CustomDay1 CustomDay2, !- Field 2
    Until: 8:00,0.05,        !- Field 3
    Until: 9:00,0.9,         !- Field 5
    Until: 10:00,0.95,       !- Field 7
    Until: 11:00,1.00,       !- Field 9
    Until: 12:00,0.95,       !- Field 11
    Until: 13:00,0.8,        !- Field 13
    Until: 14:00,0.9,        !- Field 15
    Until: 18:00,1.00,       !- Field 17
    Until: 19:00,0.60,       !- Field 19
    Until: 21:00,0.40,       !- Field 21
    Until: 24:00,0.05,       !- Field 23
    For: Weekends WinterDesignDay Holiday, !- Field 25
    Until: 24:00,0.05;       !- Field 26

  Schedule:Compact,
    SPACE1-1 Thermal Zone Thermostat Schedule,  !- Name
    SPACE1-1 Thermal Zone Thermostat Schedule Type Limits,  !- Schedule Type Limits Name
    Through: 12/31,          !- Field 1
    For: AllDays,            !- Field 2
    Until: 24:00,4;          !- Field 3

  Schedule:Compact,
    Htg-SetP-Sch,            !- Name
    Temperature,             !- Schedule Type Limits Name
    Through: 12/31,          !- Field 1
    For: WeekDays CustomDay1 CustomDay2, !- Field 2
    Until: 6:00,13.0,        !- Field 3
    Until: 7:00,18.0,        !- Field 5
    Until: 21:00,23.0,       !- Field 7
    Until: 24:00,13.0,       !- Field 9
    For: WeekEnds Holiday,   !- Field 11
    Until: 24:00,13.0,       !- Field 12
    For: SummerDesignDay,    !- Field 14
    Until: 24:00,13.0,       !- Field 15
    For: WinterDesignDay,    !- Field 17
    Until: 24:00,23.0;       !- Field 18

  Schedule:Compact,
    Clg-SetP-Sch,            !- Name
    Temperature,             !- Schedule Type Limits Name
    Through: 12/31,          !- Field 1
    For: WeekDays CustomDay1 CustomDay2, !- Field 2
    Until: 6:00,32.0,        !- Field 3
    Until: 7:00,26.0,        !- Field 5
    Until: 18:00,24.0,       !- Field 7
    Until: 21:00,26.0,       !- Field 9
    Until: 24:00,32.0,       !- Field 11
    For: WeekEnds Holiday,   !- Field 13
    Until: 24:00,32.0,       !- Field 14
    For: SummerDesignDay,    !- Field 16
    Until: 24:00,24.0,       !- Field 17
    For: WinterDesignDay,    !- Field 19
    Until: 24:00,32.0;       !- Field 20

  Schedule:Compact,
    SPACE2-1 Thermal Zone Thermostat Schedule,  !- Name
    SPACE2-1 Thermal Zone Thermostat Schedule Type Limits,  !- Schedule Type Limits Name
    Through: 12/31,          !- Field 1
    For: AllDays,            !- Field 2
    Until: 24:00,4;          !- Field 3

  Schedule:Compact,
    SPACE3-1 Thermal Zone Thermostat Schedule,  !- Name
    SPACE3-1 Thermal Zone Thermostat Schedule Type Limits,  !- Schedule Type Limits Name
    Through: 12/31,          !- Field 1
    For: AllDays,            !- Field 2
    Until: 24:00,4;          !- Field 3

  Schedule:Compact,
    SPACE4-1 Thermal Zone Thermostat Schedule,  !- Name
    SPACE4-1 Thermal Zone Thermostat Schedule Type Limits,  !- Schedule Type Limits Name
    Through: 12/31,          !- Field 1
    For: AllDays,            !- Field 2
    Until: 24:00,4;          !- Field 3

  Schedule:Compact,
    SPACE5-1 Thermal Zone Thermostat Schedule,  !- Name
    SPACE5-1 Thermal Zone Thermostat Schedule Type Limits,  !- Schedule Type Limits Name
    Through: 12/31,          !- Field 1
    For: AllDays,            !- Field 2
    Until: 24:00,4;          !- Field 3

  Schedule:Compact,
    HumidifyingHumSetSch,    !- Name
    Humidity,                !- Schedule Type Limits Name
    Through: 12/31,          !- Field 1
    For: Alldays,            !- Field 2
    Until: 24:00,40.0;       !- Field 3

  Schedule:Compact,
    DehumidifyingHumSetSch,  !- Name
    Humidity,                !- Schedule Type Limits Name
    Through: 12/31,          !- Field 1
    For: WeekDays CustomDay1 CustomDay2, !- Field 2
    Until: 7:00,65.0,        !- Field 3
    Until: 8:00,60.0,        !- Field 5
    Until: 21:00,60.0,       !- Field 7
    Until: 24:00,65.0,       !- Field 9
    For: WeekEnds Holiday,   !- Field 11
    Until: 24:00,65.0,       !- Field 12
    For: SummerDesignDay,    !- Field 14
    Until: 24:00,60.0,       !- Field 15
    For: WinterDesignDay,    !- Field 17
    Until: 24:00,65.0;       !- Field 18

  Schedule:Compact,
    ActSchd,                 !- Name
    ActivityLevel,           !- Schedule Type Limits Name
    Through: 12/31,          !- Field 1
    For: AllDays,            !- Field 2
    Until: 24:00,117.239997864; !- Field 3

                             !- Field 4

  Schedule:Compact,
    EQUIP-1,                 !- Name
    Fraction,                !- Schedule Type Limits Name
    Through: 12/31,          !- Field 1
    For: WeekDays SummerDesignDay CustomDay1 CustomDay2, !- Field 2
    Until: 8:00,0.02,        !- Field 3
    Until: 9:00,0.4,         !- Field 5
    Until: 14:00,0.9,        !- Field 7
    Until: 15:00,0.8,        !- Field 9
    Until: 16:00,0.7,        !- Field 11
    Until: 18:00,0.5,        !- Field 13
    Until: 21:00,0.3,        !- Field 15
    Until: 24:00,0.02,       !- Field 17
    For: Weekends WinterDesignDay Holiday, !- Field 19
    Until: 24:00,0.02;       !- Field 20

  Schedule:Compact,
    INFIL-SCH,               !- Name
    Fraction,                !- Schedule Type Limits Name
    Through: 12/31,          !- Field 1
    For: WeekDays CustomDay1 CustomDay2, !- Field 2
    Until: 7:00,1.0,         !- Field 3
    Until: 21:00,0.0,        !- Field 5
    Until: 24:00,1.0,        !- Field 7
    For: Weekends Holiday,   !- Field 9
    Until: 24:00,1.0,        !- Field 10
    For: SummerDesignDay,    !- Field 12
    Until: 24:00,1.0,        !- Field 13
    For: WinterDesignDay,    !- Field 15
    Until: 24:00,1.0;        !- Field 16

  Schedule:Compact,
    OCCUPY-1,                !- Name
    Fraction,                !- Schedule Type Limits Name
    Through: 12/31,          !- Field 1
    For: WeekDays SummerDesignDay CustomDay1 CustomDay2, !- Field 2
    Until: 8:00,0.0,         !- Field 3
    Until: 11:00,1.00,       !- Field 5
    Until: 12:00,0.80,       !- Field 7
    Until: 13:00,0.40,       !- Field 9
    Until: 14:00,0.80,       !- Field 11
    Until: 18:00,1.00,       !- Field 13
    Until: 19:00,0.50,       !- Field 15
    Until: 21:00,0.10,       !- Field 17
    Until: 24:00,0.0,        !- Field 19
    For: Weekends WinterDesignDay Holiday, !- Field 21
    Until: 24:00,0.0;        !- Field 22

  Schedule:Compact,
    ShadeTransSch,           !- Name
    Fraction,                !- Schedule Type Limits Name
    Through: 12/31,          !- Field 1
    For: AllDays,            !- Field 2
    Until: 24:00,0.0;        !- Field 3

!-   ===========  ALL OBJECTS IN CLASS: SCHEDULE:CONSTANT ===========

  Schedule:Constant,Always On Discrete,OnOff,1;

!-   ===========  ALL OBJECTS IN CLASS: MATERIAL ===========

  Material,
    BR01,                    !- Name
    VeryRough,               !- Roughness
    0.0094999997,            !- Thickness {m}
    0.162,                   !- Conductivity {W/m-K}
    1121,                    !- Density {kg/m3}
    1464,                    !- Specific Heat {J/kg-K}
    0.9,                     !- Thermal Absorptance
    0.7,                     !- Solar Absorptance
    0.7;                     !- Visible Absorptance

  Material,
    CC03,                    !- Name
    MediumRough,             !- Roughness
    0.1016,                  !- Thickness {m}
    1.31,                    !- Conductivity {W/m-K}
    2243,                    !- Density {kg/m3}
    837,                     !- Specific Heat {J/kg-K}
    0.9,                     !- Thermal Absorptance
    0.65,                    !- Solar Absorptance
    0.65;                    !- Visible Absorptance

  Material,
    GP01,                    !- Name
    MediumSmooth,            !- Roughness
    0.0127,                  !- Thickness {m}
    0.16,                    !- Conductivity {W/m-K}
    801,                     !- Density {kg/m3}
    837,                     !- Specific Heat {J/kg-K}
    0.9,                     !- Thermal Absorptance
    0.75,                    !- Solar Absorptance
    0.75;                    !- Visible Absorptance

  Material,
    GP02,                    !- Name
    MediumSmooth,            !- Roughness
    0.015900001,             !- Thickness {m}
    0.16,                    !- Conductivity {W/m-K}
    801,                     !- Density {kg/m3}
    837,                     !- Specific Heat {J/kg-K}
    0.9,                     !- Thermal Absorptance
    0.75,                    !- Solar Absorptance
    0.75;                    !- Visible Absorptance

  Material,
    IN02,                    !- Name
    Rough,                   !- Roughness
    0.090099998,             !- Thickness {m}
    0.043000001,             !- Conductivity {W/m-K}
    10,                      !- Density {kg/m3}
    837,                     !- Specific Heat {J/kg-K}
    0.9,                     !- Thermal Absorptance
    0.75,                    !- Solar Absorptance
    0.75;                    !- Visible Absorptance

  Material,
    IN46,                    !- Name
    VeryRough,               !- Roughness
    0.076200001,             !- Thickness {m}
    0.023,                   !- Conductivity {W/m-K}
    24,                      !- Density {kg/m3}
    1590,                    !- Specific Heat {J/kg-K}
    0.9,                     !- Thermal Absorptance
    0.5,                     !- Solar Absorptance
    0.5;                     !- Visible Absorptance

  Material,
    PW03,                    !- Name
    MediumSmooth,            !- Roughness
    0.0127,                  !- Thickness {m}
    0.115,                   !- Conductivity {W/m-K}
    545,                     !- Density {kg/m3}
    1213,                    !- Specific Heat {J/kg-K}
    0.9,                     !- Thermal Absorptance
    0.78,                    !- Solar Absorptance
    0.78;                    !- Visible Absorptance

  Material,
    RG01,                    !- Name
    Rough,                   !- Roughness
    0.0127,                  !- Thickness {m}
    1.442,                   !- Conductivity {W/m-K}
    881,                     !- Density {kg/m3}
    1674,                    !- Specific Heat {J/kg-K}
    0.9,                     !- Thermal Absorptance
    0.65,                    !- Solar Absorptance
    0.65;                    !- Visible Absorptance

  Material,
    WD01,                    !- Name
    MediumSmooth,            !- Roughness
    0.019099999,             !- Thickness {m}
    0.115,                   !- Conductivity {W/m-K}
    513,                     !- Density {kg/m3}
    1381,                    !- Specific Heat {J/kg-K}
    0.9,                     !- Thermal Absorptance
    0.78,                    !- Solar Absorptance
    0.78;                    !- Visible Absorptance

  Material,
    WD10,                    !- Name
    MediumSmooth,            !- Roughness
    0.667,                   !- Thickness {m}