!-Generator IDFEditor 1.44
!-Option SortedOrder
!-NOTE: All comments with '!-' are ignored by the IDFEditor and are generated automatically.
!-      Use '!' comments if they need to be retained when using the IDFEditor.
!-   ===========  ALL OBJECTS IN CLASS: VERSION ===========
! DOAToWaterToAirInlet_MultispeedFan.idf
!
! Basic file description:  1 story building divided into 4 exterior and one interior conditioned zones and return plenum
!                          Illustrates the use of a dedicated outdoor air system  (DOAS) with water to air heatpumps (WLHP)
!                          The DOAS air is ducted to the inlet side of the WLHP units and mixed with zone (exhaust) air
!                          through the use of inlet side mixer terminal units.
! Highlights:              Multispeed fan with UnitarySystemPerformance:Multispeed used in EquationFit coils for Space1-1
!                          Multispeed fan with UnitarySystemPerformance:Multispeed used in variable speed coils for Space2-1
!                          Multispeed fan with Discrete Fan:SystemModel used in EquationFit coils for Space3-1
!
! Simulation Location/Run: CHICAGO_IL_USA TMY2-94846, 2 design days, 2 run periods,
!                          Run Control executes the run periods using the weather file
!
! Location:                Chicago, IL
!
! Design Days:             CHICAGO_IL_USA Annual Heating 99% Design Conditions DB, MaxDB= -17.3°C
!                          CHICAGO_IL_USA Annual Cooling 1% Design Conditions, MaxDB=  31.5°C MCWB=  23.0°C
!
! Run Period (Weather File): Winter 1/14, Summer 7/7, CHICAGO_IL_USA TMY2-94846
!
! Run Control:             Zone and System sizing with weather file run control (no design days run)
!
! Building: Single floor rectangular building 100 ft x 50 ft. 5 zones - 4 exterior, 1 interior, zone height 8 feet.
!           Exterior zone depth is 12 feet. There is a 2 foot high return plenum: the overall building height is
!           10 feet. There are windows on all 4 facades; the south and north facades have glass doors.
!           The south facing glass is shaded by overhangs. The walls are woodshingle over plywood, R11 insulation,
!           and gypboard. The roof is a gravel built up roof with R-3 mineral board insulation and plywood sheathing.
!           The windows are of various single and double pane construction with 3mm and 6mm glass and either 6mm or
!           13mm argon or air gap.  The window to wall ratio is approximately 0.29.
!           The south wall and door have overhangs.
!
!           The building is oriented 30 degrees east of north.
!
! Floor Area:        463.6 m2 (5000 ft2)
! Number of Stories: 1
!
! Zone Description Details:
!
!      (0,15.2,0)                      (30.5,15.2,0)
!           _____   ________                ____
!         |\     ***        ****************   /|
!         | \                                 / |
!         |  \                 (26.8,11.6,0) /  |
!         *   \_____________________________/   *
!         *    |(3.7,11.6,0)               |    *
!         *    |                           |    *
!         *    |                           |    *
!         *    |               (26.8,3.7,0)|    *
!         *    |___________________________|    *
!         *   / (3.7,3.7,0)                 \   *
!         |  /                               \  |
!         | /                                 \ |
!         |/___******************___***________\|
!          |       Overhang        |   |
!          |_______________________|   |   window/door = *
!                                  |___|
!
!      (0,0,0)                            (30.5,0,0)
!
! Internal gains description:     lighting is 1.5 watts/ft2, office equip is 1.0 watts/ft2. There is 1 occupant
!                                 per 100 ft2 of floor area. The infiltration is 0.25 air changes per hour.
!
! Interzone Surfaces:             6 interzone surfaces (see diagram)
! Internal Mass:                  None
! People:                         50
! Lights:                         7500 W
! Windows:                        4 ea.: 1) Double pane clear, 3mm glass, 13mm air gap
!                                        2) Double pane clear, 3mm glass, 13mm argon gap
!                                        3) Double pane clear, 6mm glass, 6mm air gap
!                                        4) Double pane lowE,  6mm lowE glass outside, 6mm air gap, 6mm clear glass
!
! Doors:                          2 ea.:    Single pane grey,  3mm glass
!
! Detached Shading:               None
! Daylight:                       None
! Natural Ventilation:            None
! Compact Schedules:              Yes
!
! HVAC:                           Water to air heat pumps in each zone and a dedicated outdoor air system with
!                                 heat recovery and standard VAV fan. There are no central HVAC heating or cooling coils.
!                                 There is no conventional central plant. There is a single water loop running between the
!                                 zone WLHPs and a ground heat exchanger.
!
! Zonal Equipment:                Yes
! Central Air Handling Equipment: Yes
! System Equipment Autosize:      Yes
! Purchased Cooling:              None
! Purchased Heating:              None
! Coils:                          Yes
! Pumps:                          Yes
! Boilers:                        No
! Chillers:                       No
!
! Results:
! Standard Reports:               All
! Timestep or Hourly Variables:   Hourly
! Time bins Report:               None
! HTML Report:                    Yes
! Environmental Emissions:        None
! Utility Tariffs:                None

  Version,24.1;

!-   ===========  ALL OBJECTS IN CLASS: SIMULATIONCONTROL ===========

  SimulationControl,
    Yes,                     !- Do Zone Sizing Calculation
    Yes,                     !- Do System Sizing Calculation
    Yes,                     !- Do Plant Sizing Calculation
    Yes,                     !- Run Simulation for Sizing Periods
    Yes,                      !- Run Simulation for Weather File Run Periods
    No,                      !- Do HVAC Sizing Simulation for Sizing Periods
    1;                       !- Maximum Number of HVAC Sizing Simulation Passes

!-   ===========  ALL OBJECTS IN CLASS: BUILDING ===========

  Building,
    FPFC with DOAS to Supply Side,  !- Name
    30.,                     !- North Axis {deg}
    City,                    !- Terrain
    0.04,                    !- Loads Convergence Tolerance Value {W}
    0.4,                     !- Temperature Convergence Tolerance Value {deltaC}
    FullExterior,            !- Solar Distribution
    25,                      !- Maximum Number of Warmup Days
    6;                       !- Minimum Number of Warmup Days

!-   ===========  ALL OBJECTS IN CLASS: SURFACECONVECTIONALGORITHM:INSIDE ===========

  SurfaceConvectionAlgorithm:Inside,TARP;

!-   ===========  ALL OBJECTS IN CLASS: SURFACECONVECTIONALGORITHM:OUTSIDE ===========

  SurfaceConvectionAlgorithm:Outside,DOE-2;

!-   ===========  ALL OBJECTS IN CLASS: HEATBALANCEALGORITHM ===========

  HeatBalanceAlgorithm,ConductionTransferFunction;

!-   ===========  ALL OBJECTS IN CLASS: TIMESTEP ===========

  Timestep,4;

!-   ===========  ALL OBJECTS IN CLASS: SITE:LOCATION ===========
!

  Site:Location,
    CHICAGO_IL_USA TMY2-94846,  !- Name
    41.78,                   !- Latitude {deg}
    -87.75,                  !- Longitude {deg}
    -6.00,                   !- Time Zone {hr}
    190.00;                  !- Elevation {m}

!-   ===========  ALL OBJECTS IN CLASS: SIZINGPERIOD:DESIGNDAY ===========
! CHICAGO_IL_USA Annual Heating 99% Design Conditions DB, MaxDB= -17.3°C

  SizingPeriod:DesignDay,
    CHICAGO_IL_USA Annual Heating 99% Design Conditions DB,  !- Name
    1,                       !- Month
    21,                      !- Day of Month
    WinterDesignDay,         !- Day Type
    -17.3,                   !- Maximum Dry-Bulb Temperature {C}
    0.0,                     !- Daily Dry-Bulb Temperature Range {deltaC}
    ,                        !- Dry-Bulb Temperature Range Modifier Type
    ,                        !- Dry-Bulb Temperature Range Modifier Day Schedule Name
    Wetbulb,                 !- Humidity Condition Type
    -17.3,                   !- Wetbulb or DewPoint at Maximum Dry-Bulb {C}
    ,                        !- Humidity Condition Day Schedule Name
    ,                        !- Humidity Ratio at Maximum Dry-Bulb {kgWater/kgDryAir}
    ,                        !- Enthalpy at Maximum Dry-Bulb {J/kg}
    ,                        !- Daily Wet-Bulb Temperature Range {deltaC}
    99063.,                  !- Barometric Pressure {Pa}
    4.9,                     !- Wind Speed {m/s}
    270,                     !- Wind Direction {deg}
    No,                      !- Rain Indicator
    No,                      !- Snow Indicator
    No,                      !- Daylight Saving Time Indicator
    ASHRAEClearSky,          !- Solar Model Indicator
    ,                        !- Beam Solar Day Schedule Name
    ,                        !- Diffuse Solar Day Schedule Name
    ,                        !- ASHRAE Clear Sky Optical Depth for Beam Irradiance (taub) {dimensionless}
    ,                        !- ASHRAE Clear Sky Optical Depth for Diffuse Irradiance (taud) {dimensionless}
    0.0;                     !- Sky Clearness

! CHICAGO_IL_USA Annual Cooling 1% Design Conditions, MaxDB=  31.5°C MCWB=  23.0°C

  SizingPeriod:DesignDay,
    CHICAGO_IL_USA Annual Cooling 1% Design Conditions DB/MCWB,  !- Name
    7,                       !- Month
    21,                      !- Day of Month
    SummerDesignDay,         !- Day Type
    31.5,                    !- Maximum Dry-Bulb Temperature {C}
    10.7,                    !- Daily Dry-Bulb Temperature Range {deltaC}
    ,                        !- Dry-Bulb Temperature Range Modifier Type
    ,                        !- Dry-Bulb Temperature Range Modifier Day Schedule Name
    Wetbulb,                 !- Humidity Condition Type
    23.0,                    !- Wetbulb or DewPoint at Maximum Dry-Bulb {C}
    ,                        !- Humidity Condition Day Schedule Name
    ,                        !- Humidity Ratio at Maximum Dry-Bulb {kgWater/kgDryAir}
    ,                        !- Enthalpy at Maximum Dry-Bulb {J/kg}
    ,                        !- Daily Wet-Bulb Temperature Range {deltaC}
    99063.,                  !- Barometric Pressure {Pa}
    5.3,                     !- Wind Speed {m/s}
    230,                     !- Wind Direction {deg}
    No,                      !- Rain Indicator
    No,                      !- Snow Indicator
    No,                      !- Daylight Saving Time Indicator
    ASHRAEClearSky,          !- Solar Model Indicator
    ,                        !- Beam Solar Day Schedule Name
    ,                        !- Diffuse Solar Day Schedule Name
    ,                        !- ASHRAE Clear Sky Optical Depth for Beam Irradiance (taub) {dimensionless}
    ,                        !- ASHRAE Clear Sky Optical Depth for Diffuse Irradiance (taud) {dimensionless}
    1.0;                     !- Sky Clearness

!-   ===========  ALL OBJECTS IN CLASS: RUNPERIOD ===========

  RunPeriod,
    Run Period 1,            !- Name
    1,                       !- Begin Month
    14,                      !- Begin Day of Month
    ,                        !- Begin Year
    1,                       !- End Month
    14,                      !- End Day of Month
    ,                        !- End Year
    Tuesday,                 !- Day of Week for Start Day
    Yes,                     !- Use Weather File Holidays and Special Days
    Yes,                     !- Use Weather File Daylight Saving Period
    No,                      !- Apply Weekend Holiday Rule
    Yes,                     !- Use Weather File Rain Indicators
    Yes;                     !- Use Weather File Snow Indicators

  RunPeriod,
    Run Period 2,            !- Name
    7,                       !- Begin Month
    7,                       !- Begin Day of Month
    ,                        !- Begin Year
    7,                       !- End Month
    7,                       !- End Day of Month
    ,                        !- End Year
    Tuesday,                 !- Day of Week for Start Day
    Yes,                     !- Use Weather File Holidays and Special Days
    Yes,                     !- Use Weather File Daylight Saving Period
    No,                      !- Apply Weekend Holiday Rule
    Yes,                     !- Use Weather File Rain Indicators
    Yes;                     !- Use Weather File Snow Indicators

!-   ===========  ALL OBJECTS IN CLASS: SITE:GROUNDTEMPERATURE:BUILDINGSURFACE ===========

  Site:GroundTemperature:BuildingSurface,21.5,21.4,21.5,21.5,22.0,22.9,23.0,23.1,23.1,22.2,21.7,21.6;

!-   ===========  ALL OBJECTS IN CLASS: SITE:GROUNDTEMPERATURE:DEEP ===========

  Site:GroundTemperature:Deep,16.5,16.5,16.5,16.5,16.5,16.5,16.5,16.5,16.5,16.5,16.5,16.5;

!-   ===========  ALL OBJECTS IN CLASS: SCHEDULETYPELIMITS ===========

  ScheduleTypeLimits,
    Any Number;              !- Name

  ScheduleTypeLimits,
    Fraction,                !- Name
    0.0,                     !- Lower Limit Value
    1.0,                     !- Upper Limit Value
    CONTINUOUS;              !- Numeric Type

  ScheduleTypeLimits,
    Temperature,             !- Name
    -60,                     !- Lower Limit Value
    200,                     !- Upper Limit Value
    CONTINUOUS,              !- Numeric Type
    Temperature;             !- Unit Type

  ScheduleTypeLimits,
    Control Type,            !- Name
    0,                       !- Lower Limit Value
    4,                       !- Upper Limit Value
    DISCRETE;                !- Numeric Type

  ScheduleTypeLimits,
    On/Off,                  !- Name
    0,                       !- Lower Limit Value
    1,                       !- Upper Limit Value
    DISCRETE;                !- Numeric Type

  ScheduleTypeLimits,
    FlowRate,                !- Name
    0.0,                     !- Lower Limit Value
    10,                      !- Upper Limit Value
    CONTINUOUS;              !- Numeric Type

  ScheduleTypeLimits,
    HVACTemplate Any Number; !- Name

!-   ===========  ALL OBJECTS IN CLASS: SCHEDULE:COMPACT ===========

  Schedule:Compact,
    OCCUPY-1,                !- Name
    Fraction,                !- Schedule Type Limits Name
    Through: 12/31,          !- Field 1
    For: WeekDays SummerDesignDay CustomDay1 CustomDay2, !- Field 2
    Until: 8:00,0.0,         !- Field 3
    Until: 11:00,1.00,       !- Field 5
    Until: 12:00,0.80,       !- Field 7
    Until: 13:00,0.40,       !- Field 9
    Until: 14:00,0.80,       !- Field 11
    Until: 18:00,1.00,       !- Field 13
    Until: 19:00,0.50,       !- Field 15
    Until: 21:00,0.10,       !- Field 17
    Until: 24:00,0.0,        !- Field 19
    For: Weekends WinterDesignDay Holiday, !- Field 21
    Until: 24:00,0.0;        !- Field 22

  Schedule:Compact,
    LIGHTS-1,                !- Name
    Fraction,                !- Schedule Type Limits Name
    Through: 12/31,          !- Field 1
    For: WeekDays SummerDesignDay CustomDay1 CustomDay2, !- Field 2
    Until: 8:00,0.05,        !- Field 3
    Until: 9:00,0.9,         !- Field 5
    Until: 10:00,0.95,       !- Field 7
    Until: 11:00,1.00,       !- Field 9
    Until: 12:00,0.95,       !- Field 11
    Until: 13:00,0.8,        !- Field 13
    Until: 14:00,0.9,        !- Field 15
    Until: 18:00,1.00,       !- Field 17
    Until: 19:00,0.60,       !- Field 19
    Until: 21:00,0.40,       !- Field 21
    Until: 24:00,0.05,       !- Field 23
    For: Weekends WinterDesignDay Holiday, !- Field 25
    Until: 24:00,0.05;       !- Field 26

  Schedule:Compact,
    EQUIP-1,                 !- Name
    Fraction,                !- Schedule Type Limits Name
    Through: 12/31,          !- Field 1
    For: WeekDays SummerDesignDay CustomDay1 CustomDay2, !- Field 2
    Until: 8:00,0.02,        !- Field 3
    Until: 9:00,0.4,         !- Field 5
    Until: 14:00,0.9,        !- Field 7
    Until: 15:00,0.8,        !- Field 9
    Until: 16:00,0.7,        !- Field 11
    Until: 18:00,0.5,        !- Field 13
    Until: 21:00,0.3,        !- Field 15
    Until: 24:00,0.02,       !- Field 17
    For: Weekends WinterDesignDay Holiday, !- Field 19
    Until: 24:00,0.02;       !- Field 20

  Schedule:Compact,
    INFIL-SCH,               !- Name
    Fraction,                !- Schedule Type Limits Name
    Through: 12/31,          !- Field 1
    For: WeekDays CustomDay1 CustomDay2, !- Field 2
    Until: 7:00,1.0,         !- Field 3
    Until: 21:00,0.0,        !- Field 5
    Until: 24:00,1.0,        !- Field 7
    For: Weekends Holiday,   !- Field 9
    Until: 24:00,1.0,        !- Field 10
    For: SummerDesignDay,    !- Field 12
    Until: 24:00,1.0,        !- Field 13
    For: WinterDesignDay,    !- Field 15
    Until: 24:00,1.0;        !- Field 16

  Schedule:Compact,
    ActSchd,                 !- Name
    Any Number,              !- Schedule Type Limits Name
    Through: 12/31,          !- Field 1
    For: AllDays,            !- Field 2
    Until: 24:00,117.239997864; !- Field 3

  Schedule:Compact,
    ShadeTransSch,           !- Name
    Fraction,                !- Schedule Type Limits Name
    Through: 12/31,          !- Field 1
    For: AllDays,            !- Field 2
    Until: 24:00,0.0;        !- Field 3

! For heating, recover 2 hrs early

  Schedule:Compact,
    Htg-SetP-Sch,            !- Name
    Temperature,             !- Schedule Type Limits Name
    Through: 12/31,          !- Field 1
    For: WeekDays CustomDay1 CustomDay2, !- Field 2
    Until: 6:00,13.0,        !- Field 3
    Until: 7:00,18.0,        !- Field 5
    Until: 21:00,23.0,       !- Field 7
    Until: 24:00,13.0,       !- Field 9
    For: WeekEnds Holiday,   !- Field 11
    Until: 24:00,13.0,       !- Field 12
    For: SummerDesignDay,    !- Field 14
    Until: 24:00,13.0,       !- Field 15
    For: WinterDesignDay,    !- Field 17
    Until: 24:00,23.0;       !- Field 18

! For cooling, recover 1 hr early

  Schedule:Compact,
    Clg-SetP-Sch,            !- Name
    Temperature,             !- Schedule Type Limits Name
    Through: 12/31,          !- Field 1
    For: WeekDays CustomDay1 CustomDay2, !- Field 2
    Until: 7:00,32.0,        !- Field 3
    Until: 21:00,24.0,       !- Field 5
    Until: 24:00,32.0,       !- Field 7
    For: WeekEnds Holiday,   !- Field 9
    Until: 24:00,32.0,       !- Field 10
    For: SummerDesignDay,    !- Field 12
    Until: 24:00,24.0,       !- Field 13
    For: WinterDesignDay,    !- Field 15
    Until: 24:00,32.0;       !- Field 16

  Schedule:Compact,
    FanAvailSched,           !- Name
    Fraction,                !- Schedule Type Limits Name
    Through: 12/31,          !- Field 1
    For: WeekDays CustomDay1 CustomDay2, !- Field 2
    Until: 7:00,0.0,         !- Field 3
    Until: 21:00,1.0,        !- Field 5
    Until: 24:00,0.0,        !- Field 7
    For: Weekends Holiday,   !- Field 9
    Until: 24:00,0.0,        !- Field 10
    For: SummerDesignDay,    !- Field 12
    Until: 24:00,1.0,        !- Field 13
    For: WinterDesignDay,    !- Field 15
    Until: 24:00,1.0;        !- Field 16

  Schedule:Compact,
    HVACTemplate-Always 1,   !- Name
    HVACTemplate Any Number, !- Schedule Type Limits Name
    Through: 12/31,          !- Field 1
    For: AllDays,            !- Field 2
    Until: 24:00,1;          !- Field 3

  Schedule:Compact,
    HVACTemplate-Always 4,   !- Name
    HVACTemplate Any Number, !- Schedule Type Limits Name
    Through: 12/31,          !- Field 1
    For: AllDays,            !- Field 2
    Until: 24:00,4;          !- Field 3

  Schedule:Compact,
    Always 21.1,             !- Name
    Temperature,             !- Schedule Type Limits Name
    Through: 12/31,          !- Field 1
    For: AllDays,            !- Field 2
    Until: 24:00,21.1;       !- Field 3

  Schedule:Compact,
    CyclingFanSch,           !- Name
    Fraction,                !- Schedule Type Limits Name
    Through: 12/31,          !- Field 1
    For: AllDays,            !- Field 2
    Until: 24:00,0.0;        !- Field 3

!-   ===========  ALL OBJECTS IN CLASS: MATERIAL ===========

  Material,
    WD10,                    !- Name
    MediumSmooth,            !- Roughness
    0.667,                   !- Thickness {m}
    0.115,                   !- Conductivity {W/m-K}
    513,                     !- Density {kg/m3}
    1381,                    !- Specific Heat {J/kg-K}
    0.9,                     !- Thermal Absorptance
    0.78,                    !- Solar Absorptance
    0.78;                    !- Visible Absorptance

  Material,
    RG01,                    !- Name
    Rough,                   !- Roughness
    1.2700000E-02,           !- Thickness {m}
    1.442000,                !- Conductivity {W/m-K}
    881.0000,                !- Density {kg/m3}
    1674.000,                !- Specific Heat {J/kg-K}
    0.9000000,               !- Thermal Absorptance
    0.6500000,               !- Solar Absorptance
    0.6500000;               !- Visible Absorptance

  Material,
    BR01,                    !- Name
    VeryRough,               !- Roughness
    9.4999997E-03,           !- Thickness {m}
    0.1620000,               !- Conductivity {W/m-K}
    1121.000,                !- Density {kg/m3}
    1464.000,                !- Specific Heat {J/kg-K}
    0.9000000,               !- Thermal Absorptance
    0.7000000,               !- Solar Absorptance
    0.7000000;               !- Visible Absorptance

  Material,
    IN46,                    !- Name
    VeryRough,               !- Roughness
    7.6200001E-02,           !- Thickness {m}
    2.3000000E-02,           !- Conductivity {W/m-K}
    24.00000,                !- Density {kg/m3}
    1590.000,                !- Specific Heat {J/kg-K}
    0.9000000,               !- Thermal Absorptance
    0.5000000,               !- Solar Absorptance
    0.5000000;               !- Visible Absorptance

  Material,
    WD01,                    !- Name
    MediumSmooth,            !- Roughness
    1.9099999E-02,           !- Thickness {m}
    0.1150000,               !- Conductivity {W/m-K}
    513.0000,                !- Density {kg/m3}
    1381.000,                !- Specific Heat {J/kg-K}
    0.9000000,               !- Thermal Absorptance
    0.7800000,               !- Solar Absorptance
    0.7800000;               !- Visible Absorptance

  Material,
    PW03,                    !- Name
    MediumSmooth,            !- Roughness
    1.2700000E-02,           !- Thickness {m}
    0.1150000,               !- Conductivity {W/m-K}
    545.0000,                !- Density {kg/m3}
    1213.000,                !- Specific Heat {J/kg-K}
    0.9000000,               !- Thermal Absorptance
    0.7800000,               !- Solar Absorptance
    0.7800000;               !- Visible Absorptance

  Material,
    IN02,                    !- Name
    Rough,                   !- Roughness
    9.0099998E-02,           !- Thickness {m}
    4.3000001E-02,           !- Conductivity {W/m-K}
    10.00000,                !- Density {kg/m3}
    837.0000,                !- Specific Heat {J/kg-K}
    0.9000000,               !- Thermal Absorptance
    0.7500000,               !- Solar Absorptance
    0.7500000;               !- Visible Absorptance

  Material,
    GP01,                    !- Name
    MediumSmooth,            !- Roughness
    1.2700000E-02,           !- Thickness {m}
    0.1600000,               !- Conductivity {W/m-K}
    801.0000,                !- Density {kg/m3}
    837.0000,                !- Specific Heat {J/kg-K}
    0.9000000,               !- Thermal Absorptance
    0.7500000,               !- Solar Absorptance
    0.7500000;               !- Visible Absorptance

  Material,
    GP02,                    !- Name
    MediumSmooth,            !- Roughness
    1.5900001E-02,           !- Thickness {m}
    0.1600000,               !- Conductivity {W/m-K}
    801.0000,                !- Density {kg/m3}
    837.0000,                !- Specific Heat {J/kg-K}
    0.9000000,               !- Thermal Absorptance
    0.7500000,               !- Solar Absorptance
    0.7500000;               !- Visible Absorptance

  Material,
    CC03,                    !- Name
    MediumRough,             !- Roughness
    0.1016000,               !- Thickness {m}
    1.310000,                !- Conductivity {W/m-K}
    2243.000,                !- Density {kg/m3}
    837.0000,                !- Specific Heat {J/kg-K}
    0.9000000,               !- Thermal Absorptance
    0.6500000,               !- Solar Absorptance
    0.6500000;               !- Visible Absorptance

!-   ===========  ALL OBJECTS IN CLASS: MATERIAL:NOMASS ===========

  Material:NoMass,
    CP01,                    !- Name
    Rough,                   !- Roughness
    0.3670000,               !- Thermal Resistance {m2-K/W}
    0.9000000,               !- Thermal Absorptance
    0.7500000,               !- Solar Absorptance
    0.7500000;               !- Visible Absorptance

  Material:NoMass,
    MAT-SB-U,                !- Name
    Rough,                   !- Roughness
    0.117406666,             !- Thermal Resistance {m2-K/W}
    0.65,                    !- Thermal Absorptance
    0.65,                    !- Solar Absorptance
    0.65;                    !- Visible Absorptance

  Material:NoMass,
    MAT-CLNG-1,              !- Name
    Rough,                   !- Roughness
    0.652259290,             !- Thermal Resistance {m2-K/W}
    0.65,                    !- Thermal Absorptance
    0.65,                    !- Solar Absorptance
    0.65;                    !- Visible Absorptance

  Material:NoMass,
    MAT-FLOOR-1,             !- Name
    Rough,                   !- Roughness
    3.522199631,             !- Thermal Resistance {m2-K/W}
    0.65,                    !- Thermal Absorptance
    0.65,                    !- Solar Absorptance
    0.65;                    !- Visible Absorptance

!-   ===========  ALL OBJECTS IN CLASS: MATERIAL:AIRGAP ===========

  Material:AirGap,
    AL21,                    !- Name
    0.1570000;               !- Thermal Resistance {m2-K/W}

  Material:AirGap,
    AL23,                    !- Name
    0.1530000;               !- Thermal Resistance {m2-K/W}

!-   ===========  ALL OBJECTS IN CLASS: WINDOWMATERIAL:GLAZING ===========

  WindowMaterial:Glazing,
    CLEAR 3MM,               !- Name
    SpectralAverage,         !- Optical Data Type
    ,                        !- Window Glass Spectral Data Set Name
    0.003,                   !- Thickness {m}
    0.837,                   !- Solar Transmittance at Normal Incidence
    0.075,                   !- Front Side Solar Reflectance at Normal Incidence
    0.075,                   !- Back Side Solar Reflectance at Normal Incidence
    0.898,                   !- Visible Transmittance at Normal Incidence
    0.081,                   !- Front Side Visible Reflectance at Normal Incidence
    0.081,                   !- Back Side Visible Reflectance at Normal Incidence
    0.0,                     !- Infrared Transmittance at Normal Incidence
    0.84,                    !- Front Side Infrared Hemispherical Emissivity
    0.84,                    !- Back Side Infrared Hemispherical Emissivity
    0.9;                     !- Conductivity {W/m-K}

  WindowMaterial:Glazing,
    GREY 3MM,                !- Name
    SpectralAverage,         !- Optical Data Type
    ,                        !- Window Glass Spectral Data Set Name
    0.003,                   !- Thickness {m}
    0.626,                   !- Solar Transmittance at Normal Incidence
    0.061,                   !- Front Side Solar Reflectance at Normal Incidence
    0.061,                   !- Back Side Solar Reflectance at Normal Incidence
    0.611,                   !- Visible Transmittance at Normal Incidence
    0.061,                   !- Front Side Visible Reflectance at Normal Incidence
    0.061,                   !- Back Side Visible Reflectance at Normal Incidence
    0.0,                     !- Infrared Transmittance at Normal Incidence
    0.84,                    !- Front Side Infrared Hemispherical Emissivity
    0.84,                    !- Back Side Infrared Hemispherical Emissivity
    0.9;                     !- Conductivity {W/m-K}

  WindowMaterial:Glazing,
    CLEAR 6MM,               !- Name
    SpectralAverage,         !- Optical Data Type
    ,                        !- Window Glass Spectral Data Set Name
    0.006,                   !- Thickness {m}
    0.775,                   !- Solar Transmittance at Normal Incidence
    0.071,                   !- Front Side Solar Reflectance at Normal Incidence
    0.071,                   !- Back Side Solar Reflectance at Normal Incidence
    0.881,                   !- Visible Transmittance at Normal Incidence
    0.080,                   !- Front Side Visible Reflectance at Normal Incidence
    0.080,                   !- Back Side Visible Reflectance at Normal Incidence
    0.0,                     !- Infrared Transmittance at Normal Incidence
    0.84,                    !- Front Side Infrared Hemispherical Emissivity
    0.84,                    !- Back Side Infrared Hemispherical Emissivity
    0.9;                     !- Conductivity {W/m-K}

  WindowMaterial:Glazing,
    LoE CLEAR 6MM,           !- Name
    SpectralAverage,         !- Optical Data Type
    ,                        !- Window Glass Spectral Data Set Name
    0.006,                   !- Thickness {m}
    0.600,                   !- Solar Transmittance at Normal Incidence
    0.170,                   !- Front Side Solar Reflectance at Normal Incidence