! VentilationSimpleTest.idf
! Basic file description: Illustration of using VENTILATION statement, file was originally created
!                         with HBLC and then modified by hand in a text editor.
! Run:      3 design days for Hilo, Hawaii (two are the ASHRAE HoF 2005 design days and one is
!           made up of the average of the two to mimic a spring day approximately).
! Building: Three zones/buildings which are all identical.  To avoid any shading between the zones
!           each is separated by a distance of 100m (in the x-direction).  The shape of each zone
!           is basically rectangular with the long side parallel to the east-west axis.  The south
!           wall is articulated, just for kicks.  Windows are present on all south walls and the
!           north wall.  The zones are "uncontrolled" in that the only method of cooling the spaces
!           is the ventilation statements.  The intent is to see the effect of different ventilation
!           types on the zone temperatures.
! Internal: People, lights, and equipment at reasonable levels for each zone.  The levels of these
!           parameters is the same for all zones.  VENTILATION (sort of an internal gain/loss) is
!           also present in each zone.  The only difference in the ventilation between the zones is
!           the type of ventilation.  In the first zone, ventilation is due to natural air movement.
!           In the second zone, the ventilation is due to an intake fan.  In the third zone, the
!           ventilation is due to an exhaust fan.  Though there are slight fan efficiency differences
!           between the zones, the flow rate and modifying schedule/coefficients are identical from
!           zone to zone.
! System:   None.
! Plant:    None.
! SolDis=FullExterior, Aniso, Simple Interior and Exterior Convection

  Version,24.1;

  Timestep,4;

  Building,
    BUILDING #1,             !- Name
    0.0000000E+00,           !- North Axis {deg}
    Suburbs,                 !- Terrain
    3.9999999E-02,           !- Loads Convergence Tolerance Value {W}
    0.4000000,               !- Temperature Convergence Tolerance Value {deltaC}
    FullExterior,            !- Solar Distribution
    25,                      !- Maximum Number of Warmup Days
    6;                       !- Minimum Number of Warmup Days

  SurfaceConvectionAlgorithm:Inside,Simple;

  SurfaceConvectionAlgorithm:Outside,SimpleCombined;

  SimulationControl,
    No,                      !- Do Zone Sizing Calculation
    No,                      !- Do System Sizing Calculation
    No,                      !- Do Plant Sizing Calculation
    Yes,                     !- Run Simulation for Sizing Periods
    No,                      !- Run Simulation for Weather File Run Periods
    No,                      !- Do HVAC Sizing Simulation for Sizing Periods
    1;                       !- Maximum Number of HVAC Sizing Simulation Passes

  RunPeriod,
    Run Period 1,            !- Name
    1,                       !- Begin Month
    1,                       !- Begin Day of Month
    ,                        !- Begin Year
    12,                      !- End Month
    31,                      !- End Day of Month
    ,                        !- End Year
    Tuesday,                 !- Day of Week for Start Day
    Yes,                     !- Use Weather File Holidays and Special Days
    Yes,                     !- Use Weather File Daylight Saving Period
    No,                      !- Apply Weekend Holiday Rule
    Yes,                     !- Use Weather File Rain Indicators
    Yes;                     !- Use Weather File Snow Indicators

  Site:Location,
    HILO_HI_USA TMY2-21504,  !- Name
    19.72,                   !- Latitude {deg}
    -155.07,                 !- Longitude {deg}
    -10.00,                  !- Time Zone {hr}
    11.00;                   !- Elevation {m}

 ! HILO_HI_USA Heating 99%, MaxDB=  17.10°C

  SizingPeriod:DesignDay,
    HILO_HI_USA Heating 99% Conditions,  !- Name
    1,                       !- Month
    21,                      !- Day of Month
    WinterDesignDay,         !- Day Type
    17.10,                   !- Maximum Dry-Bulb Temperature {C}
    0.00,                    !- Daily Dry-Bulb Temperature Range {deltaC}
    ,                        !- Dry-Bulb Temperature Range Modifier Type
    ,                        !- Dry-Bulb Temperature Range Modifier Day Schedule Name
    Wetbulb,                 !- Humidity Condition Type
    17.10,                   !- Wetbulb or DewPoint at Maximum Dry-Bulb {C}
    ,                        !- Humidity Condition Day Schedule Name
    ,                        !- Humidity Ratio at Maximum Dry-Bulb {kgWater/kgDryAir}
    ,                        !- Enthalpy at Maximum Dry-Bulb {J/kg}
    ,                        !- Daily Wet-Bulb Temperature Range {deltaC}
    101193.,                 !- Barometric Pressure {Pa}
    3.20,                    !- Wind Speed {m/s}
    230.00,                  !- Wind Direction {deg}
    No,                      !- Rain Indicator
    No,                      !- Snow Indicator
    No,                      !- Daylight Saving Time Indicator
    ASHRAEClearSky,          !- Solar Model Indicator
    ,                        !- Beam Solar Day Schedule Name
    ,                        !- Diffuse Solar Day Schedule Name
    ,                        !- ASHRAE Clear Sky Optical Depth for Beam Irradiance (taub) {dimensionless}
    ,                        !- ASHRAE Clear Sky Optical Depth for Diffuse Irradiance (taud) {dimensionless}
    0.00;                    !- Sky Clearness

 ! HILO_HI_USA Cooling (DB=>MWB) 1%, MaxDB=  29.10°C MWB=  23.10°C

  SizingPeriod:DesignDay,
    HILO_HI_USA Cooling 1% Conditions DB=>MWB,  !- Name
    7,                       !- Month
    21,                      !- Day of Month
    SummerDesignDay,         !- Day Type
    29.10,                   !- Maximum Dry-Bulb Temperature {C}
    7.40,                    !- Daily Dry-Bulb Temperature Range {deltaC}
    ,                        !- Dry-Bulb Temperature Range Modifier Type
    ,                        !- Dry-Bulb Temperature Range Modifier Day Schedule Name
    Wetbulb,                 !- Humidity Condition Type
    23.10,                   !- Wetbulb or DewPoint at Maximum Dry-Bulb {C}
    ,                        !- Humidity Condition Day Schedule Name
    ,                        !- Humidity Ratio at Maximum Dry-Bulb {kgWater/kgDryAir}
    ,                        !- Enthalpy at Maximum Dry-Bulb {J/kg}
    ,                        !- Daily Wet-Bulb Temperature Range {deltaC}
    101193.,                 !- Barometric Pressure {Pa}
    5.40,                    !- Wind Speed {m/s}
    110.00,                  !- Wind Direction {deg}
    No,                      !- Rain Indicator
    No,                      !- Snow Indicator
    No,                      !- Daylight Saving Time Indicator
    ASHRAEClearSky,          !- Solar Model Indicator
    ,                        !- Beam Solar Day Schedule Name
    ,                        !- Diffuse Solar Day Schedule Name
    ,                        !- ASHRAE Clear Sky Optical Depth for Beam Irradiance (taub) {dimensionless}
    ,                        !- ASHRAE Clear Sky Optical Depth for Diffuse Irradiance (taud) {dimensionless}
    1.00;                    !- Sky Clearness

 ! HILO Hawaii Fictional Spring Day (average of WDD and SDD)

  SizingPeriod:DesignDay,
    HILO Hawaii Spring Day,  !- Name
    4,                       !- Month
    1,                       !- Day of Month
    SummerDesignDay,         !- Day Type
    23.10,                   !- Maximum Dry-Bulb Temperature {C}
    3.70,                    !- Daily Dry-Bulb Temperature Range {deltaC}
    ,                        !- Dry-Bulb Temperature Range Modifier Type
    ,                        !- Dry-Bulb Temperature Range Modifier Day Schedule Name
    Wetbulb,                 !- Humidity Condition Type
    20.10,                   !- Wetbulb or DewPoint at Maximum Dry-Bulb {C}
    ,                        !- Humidity Condition Day Schedule Name
    ,                        !- Humidity Ratio at Maximum Dry-Bulb {kgWater/kgDryAir}
    ,                        !- Enthalpy at Maximum Dry-Bulb {J/kg}
    ,                        !- Daily Wet-Bulb Temperature Range {deltaC}
    101193.,                 !- Barometric Pressure {Pa}
    4.30,                    !- Wind Speed {m/s}
    170.00,                  !- Wind Direction {deg}
    No,                      !- Rain Indicator
    No,                      !- Snow Indicator
    No,                      !- Daylight Saving Time Indicator
    ASHRAEClearSky,          !- Solar Model Indicator
    ,                        !- Beam Solar Day Schedule Name
    ,                        !- Diffuse Solar Day Schedule Name
    ,                        !- ASHRAE Clear Sky Optical Depth for Beam Irradiance (taub) {dimensionless}
    ,                        !- ASHRAE Clear Sky Optical Depth for Diffuse Irradiance (taud) {dimensionless}
    1.00;                    !- Sky Clearness

  Material,
    A2 - 4 IN DENSE FACE BRICK,  !- Name
    Rough,                   !- Roughness
    0.1014984,               !- Thickness {m}
    1.245296,                !- Conductivity {W/m-K}
    2082.400,                !- Density {kg/m3}
    920.4800,                !- Specific Heat {J/kg-K}
    0.9000000,               !- Thermal Absorptance
    0.9300000,               !- Solar Absorptance
    0.9300000;               !- Visible Absorptance

  Material,
    B3 - 2 IN INSULATION,    !- Name
    VeryRough,               !- Roughness
    5.0901599E-02,           !- Thickness {m}
    4.3239430E-02,           !- Conductivity {W/m-K}
    32.03693,                !- Density {kg/m3}
    836.8000,                !- Specific Heat {J/kg-K}
    0.9000000,               !- Thermal Absorptance
    0.5000000,               !- Solar Absorptance
    0.5000000;               !- Visible Absorptance

  Material,
    C2 - 4 IN LW CONCRETE BLOCK,  !- Name
    MediumRough,             !- Roughness
    0.1014984,               !- Thickness {m}
    0.3805070,               !- Conductivity {W/m-K}
    608.7016,                !- Density {kg/m3}
    836.8000,                !- Specific Heat {J/kg-K}
    0.9000000,               !- Thermal Absorptance
    0.6500000,               !- Solar Absorptance
    0.6500000;               !- Visible Absorptance

  Material,
    E1 - 3 / 4 IN PLASTER OR GYP BOARD,  !- Name
    Smooth,                  !- Roughness
    1.9050000E-02,           !- Thickness {m}
    0.7264224,               !- Conductivity {W/m-K}
    1601.846,                !- Density {kg/m3}
    836.8000,                !- Specific Heat {J/kg-K}
    0.9000000,               !- Thermal Absorptance
    0.9200000,               !- Solar Absorptance
    0.9200000;               !- Visible Absorptance

  WindowMaterial:Glazing,
    GLASS - CLEAR PLATE 1 / 4 IN,  !- Name
    SpectralAverage,         !- Optical Data Type
    ,                        !- Window Glass Spectral Data Set Name
    6.0000001E-03,           !- Thickness {m}
    0.7750000,               !- Solar Transmittance at Normal Incidence
    7.1000002E-02,           !- Front Side Solar Reflectance at Normal Incidence
    7.1000002E-02,           !- Back Side Solar Reflectance at Normal Incidence
    0.8810000,               !- Visible Transmittance at Normal Incidence
    7.9999998E-02,           !- Front Side Visible Reflectance at Normal Incidence
    7.9999998E-02,           !- Back Side Visible Reflectance at Normal Incidence
    0.0000000E+00,           !- Infrared Transmittance at Normal Incidence
    0.8400000,               !- Front Side Infrared Hemispherical Emissivity
    0.8400000,               !- Back Side Infrared Hemispherical Emissivity
    0.9000000;               !- Conductivity {W/m-K}

  Material,
    DIRT 12 IN,              !- Name
    Rough,                   !- Roughness
    0.3048000,               !- Thickness {m}
    0.1729577,               !- Conductivity {W/m-K}
    1041.200,                !- Density {kg/m3}
    836.8000,                !- Specific Heat {J/kg-K}
    0.9000000,               !- Thermal Absorptance
    0.7000000,               !- Solar Absorptance
    0.7000000;               !- Visible Absorptance

  Material,
    CONCRETE - SAND AND GRAVEL 4 IN,  !- Name
    MediumRough,             !- Roughness
    0.1014984,               !- Thickness {m}
    1.729577,                !- Conductivity {W/m-K}
    2242.585,                !- Density {kg/m3}
    836.8000,                !- Specific Heat {J/kg-K}
    0.9000000,               !- Thermal Absorptance
    0.6000000,               !- Solar Absorptance
    0.6000000;               !- Visible Absorptance

  Material,
    E2 - 1 / 2 IN SLAG OR STONE,  !- Name
    Rough,                   !- Roughness
    1.2710161E-02,           !- Thickness {m}
    1.435549,                !- Conductivity {W/m-K}
    881.0155,                !- Density {kg/m3}
    1673.600,                !- Specific Heat {J/kg-K}
    0.9000000,               !- Thermal Absorptance
    0.5500000,               !- Solar Absorptance
    0.5500000;               !- Visible Absorptance

  Material,
    E3 - 3 / 8 IN FELT AND MEMBRANE,  !- Name
    Rough,                   !- Roughness
    9.5402403E-03,           !- Thickness {m}
    0.1902535,               !- Conductivity {W/m-K}
    1121.292,                !- Density {kg/m3}
    1673.600,                !- Specific Heat {J/kg-K}
    0.9000000,               !- Thermal Absorptance
    0.7500000,               !- Solar Absorptance
    0.7500000;               !- Visible Absorptance

  Material,
    B6 - 2 IN DENSE INSULATION,  !- Name
    VeryRough,               !- Roughness
    5.0901599E-02,           !- Thickness {m}
    4.3239430E-02,           !- Conductivity {W/m-K}
    91.30524,                !- Density {kg/m3}
    836.8000,                !- Specific Heat {J/kg-K}
    0.9000000,               !- Thermal Absorptance
    0.5000000,               !- Solar Absorptance
    0.5000000;               !- Visible Absorptance

  Material,
    C12 - 2 IN HW CONCRETE,  !- Name
    MediumRough,             !- Roughness
    5.0901599E-02,           !- Thickness {m}
    1.729577,                !- Conductivity {W/m-K}
    2242.585,                !- Density {kg/m3}
    836.8000,                !- Specific Heat {J/kg-K}
    0.9000000,               !- Thermal Absorptance
    0.6500000,               !- Solar Absorptance
    0.6500000;               !- Visible Absorptance

  Construction,
    EXTERIOR,                !- Name
    A2 - 4 IN DENSE FACE BRICK,  !- Outside Layer
    B3 - 2 IN INSULATION,    !- Layer 2
    C2 - 4 IN LW CONCRETE BLOCK,  !- Layer 3
    E1 - 3 / 4 IN PLASTER OR GYP BOARD;  !- Layer 4

  Construction,
    SINGLE PANE HW WINDOW,   !- Name
    GLASS - CLEAR PLATE 1 / 4 IN;  !- Outside Layer

  Construction,
    SLAB FLOOR,              !- Name
    DIRT 12 IN,              !- Outside Layer
    CONCRETE - SAND AND GRAVEL 4 IN;  !- Layer 2

  Construction,
    ROOF31,                  !- Name
    E2 - 1 / 2 IN SLAG OR STONE,  !- Outside Layer
    E3 - 3 / 8 IN FELT AND MEMBRANE,  !- Layer 2
    B6 - 2 IN DENSE INSULATION,  !- Layer 3
    C12 - 2 IN HW CONCRETE;  !- Layer 4

  ScheduleTypeLimits,
    Any Number;              !- Name

  ScheduleTypeLimits,
    Fraction,                !- Name
    0.0,                     !- Lower Limit Value
    1.0,                     !- Upper Limit Value
    CONTINUOUS;              !- Numeric Type

  Schedule:Compact,
    BLDG Sch   1,            !- Name
    Any Number,              !- Schedule Type Limits Name
    Through: 12/31,          !- Field 1
    For: Weekdays SummerDesignDay WinterDesignDay, !- Field 2
    Until: 7:00,1.0,         !- Field 3
    Until: 8:00,0.5,         !- Field 5
    Until: 15:00,0.3,        !- Field 7
    Until: 16:00,0.4,        !- Field 9
    Until: 17:00,0.7,        !- Field 11
    Until: 24:00,1.0,        !- Field 13
    For: AllOtherDays,       !- Field 15
    Until: 9:00,1.0,         !- Field 16
    Until: 16:00,0.3,        !- Field 18
    Until: 19:00,0.7,        !- Field 20
    Until: 22:00,0.3,        !- Field 22
    Until: 23:00,0.7,        !- Field 24
    Until: 24:00,1.0;        !- Field 26

  Schedule:Compact,
    BLDG Sch   2,            !- Name
    Any Number,              !- Schedule Type Limits Name
    Through: 12/31,          !- Field 1
    For: Weekdays SummerDesignDay WinterDesignDay, !- Field 2
    Until: 6:00,0.1,         !- Field 3
    Until: 8:00,0.2,         !- Field 5
    Until: 16:00,0.1,        !- Field 7
    Until: 17:00,0.2,        !- Field 9
    Until: 19:00,0.5,        !- Field 11
    Until: 22:00,1.0,        !- Field 13
    Until: 23:00,0.5,        !- Field 15
    Until: 24:00,0.3,        !- Field 17
    For: AllOtherDays,       !- Field 19
    Until: 16:00,0.1,        !- Field 20
    Until: 18:00,0.5,        !- Field 22
    Until: 22:00,1.0,        !- Field 24
    Until: 23:00,0.5,        !- Field 26
    Until: 24:00,0.3;        !- Field 28

  Schedule:Compact,
    BLDG Sch   3,            !- Name
    Any Number,              !- Schedule Type Limits Name
    Through: 12/31,          !- Field 1
    For: AllDays,            !- Field 2
    Until: 24:00,1.0;        !- Field 3

  Schedule:Compact,
    Activity Lvl   1,        !- Name
    Any Number,              !- Schedule Type Limits Name
    Through: 12/31,          !- Field 1
    For: AllDays,            !- Field 2
    Until: 24:00,130.0;      !- Field 3

  Schedule:Compact,
    ShadingTransmittance:0001,  !- Name
    Fraction,                !- Schedule Type Limits Name
    Through: 12/31,          !- Field 1
    For: AllDays,            !- Field 2
    Until: 24:00,0.0;        !- Field 3

  Site:GroundTemperature:BuildingSurface,1.90000000E+01,1.90000000E+01,1.90000000E+01,2.00000000E+01,2.20000000E+01,2.30000000E+01,2.40000000E+01,2.30000000E+01,2.20000000E+01,2.10000000E+01,2.00000000E+01,1.90000000E+01;

  Zone,
    ZONE 1,                  !- Name
    0.0000000E+00,           !- Direction of Relative North {deg}
    1.980000,                !- X Origin {m}
    4.580000,                !- Y Origin {m}
    0.0000000E+00,           !- Z Origin {m}
    1,                       !- Type
    1,                       !- Multiplier
    autocalculate,           !- Ceiling Height {m}
    autocalculate;           !- Volume {m3}

  People,
    ZONE 1 People 1,         !- Name
    ZONE 1,                  !- Zone or ZoneList or Space or SpaceList Name
    BLDG Sch   1,            !- Number of People Schedule Name
    people,                  !- Number of People Calculation Method
    4.000000,                !- Number of People
    ,                        !- People per Floor Area {person/m2}
    ,                        !- Floor Area per Person {m2/person}
    0.6000000,               !- Fraction Radiant
    ,                        !- Sensible Heat Fraction
    Activity Lvl   1;        !- Activity Level Schedule Name

  Lights,
    ZONE 1 Lights 1,         !- Name
    ZONE 1,                  !- Zone or ZoneList or Space or SpaceList Name
    BLDG Sch   2,            !- Schedule Name
    LightingLevel,           !- Design Level Calculation Method
    950.0000,                !- Lighting Level {W}
    ,                        !- Watts per Zone Floor Area {W/m2}
    ,                        !- Watts per Person {W/person}
    0.0000000E+00,           !- Return Air Fraction
    0.4000000,               !- Fraction Radiant
    0.2000000,               !- Fraction Visible
    0.0000000E+00,           !- Fraction Replaceable
    GeneralLights;           !- End-Use Subcategory

  ElectricEquipment,
    ZONE 1 ElecEq 1,         !- Name
    ZONE 1,                  !- Zone or ZoneList or Space or SpaceList Name
    BLDG Sch   2,            !- Schedule Name
    EquipmentLevel,          !- Design Level Calculation Method
    480.0000,                !- Design Level {W}
    ,                        !- Watts per Zone Floor Area {W/m2}
    ,                        !- Watts per Person {W/person}
    0.0000000E+00,           !- Fraction Latent
    0.3000000,               !- Fraction Radiant
    0.0000000E+00;           !- Fraction Lost

  ZoneEarthtube,
    ZONE 1,                  !- Zone Name
    BLDG Sch   3,            !- Schedule Name
    1.0,                     !- Design Flow Rate {m3/s}
    -10.0,                   !- Minimum Zone Temperature when Cooling {C}
    30.0,                    !- Maximum Zone Temperature when Heating {C}
    0.1,                     !- Delta Temperature {deltaC}
    NATURAL,                 !- Earthtube Type
    0.0,                     !- Fan Pressure Rise {Pa}
    1.0,                     !- Fan Total Efficiency
    0.25,                    !- Pipe Radius {m}
    0.01,                    !- Pipe Thickness {m}
    100.0,                   !- Pipe Length {m}
    50.0,                    !- Pipe Thermal Conductivity {W/m-K}
    3,                       !- Pipe Depth Under Ground Surface {m}
    HeavyAndSaturated,       !- Soil Condition
    12.68846,                !- Average Soil Surface Temperature {C}
    5.893740,                !- Amplitude of Soil Surface Temperature {deltaC}
    2,                       !- Phase Constant of Soil Surface Temperature {days}
    0.6060000,               !- Constant Term Flow Coefficient
    2.0199999E-02,           !- Temperature Term Flow Coefficient
    5.9800001E-04,           !- Velocity Term Flow Coefficient
    0.0000000E+00;           !- Velocity Squared Term Flow Coefficient

  Zone,
    ZONE 2,                  !- Name
    0.0000000E+00,           !- Direction of Relative North {deg}
    101.980000,              !- X Origin {m}
    4.580000,                !- Y Origin {m}
    0.0000000E+00,           !- Z Origin {m}
    1,                       !- Type
    1,                       !- Multiplier
    autocalculate,           !- Ceiling Height {m}
    autocalculate;           !- Volume {m3}

  People,
    ZONE 2 People 1,         !- Name
    ZONE 2,                  !- Zone or ZoneList or Space or SpaceList Name
    BLDG Sch   1,            !- Number of People Schedule Name
    people,                  !- Number of People Calculation Method
    4.000000,                !- Number of People
    ,                        !- People per Floor Area {person/m2}
    ,                        !- Floor Area per Person {m2/person}
    0.6000000,               !- Fraction Radiant
    ,                        !- Sensible Heat Fraction
    Activity Lvl   1;        !- Activity Level Schedule Name

  Lights,
    ZONE 2 Lights 1,         !- Name
    ZONE 2,                  !- Zone or ZoneList or Space or SpaceList Name
    BLDG Sch   2,            !- Schedule Name
    LightingLevel,           !- Design Level Calculation Method
    950.0000,                !- Lighting Level {W}
    ,                        !- Watts per Zone Floor Area {W/m2}
    ,                        !- Watts per Person {W/person}
    0.0000000E+00,           !- Return Air Fraction
    0.4000000,               !- Fraction Radiant
    0.2000000,               !- Fraction Visible
    0.0000000E+00,           !- Fraction Replaceable
    GeneralLights;           !- End-Use Subcategory

  ElectricEquipment,
    ZONE 2 ElecEq 1,         !- Name
    ZONE 2,                  !- Zone or ZoneList or Space or SpaceList Name
    BLDG Sch   2,            !- Schedule Name
    EquipmentLevel,          !- Design Level Calculation Method
    480.0000,                !- Design Level {W}
    ,                        !- Watts per Zone Floor Area {W/m2}
    ,                        !- Watts per Person {W/person}
    0.0000000E+00,           !- Fraction Latent
    0.3000000,               !- Fraction Radiant
    0.0000000E+00;           !- Fraction Lost

  ZoneEarthtube,
    ZONE 2,                  !- Zone Name
    BLDG Sch   3,            !- Schedule Name
    1.0,                     !- Design Flow Rate {m3/s}
    -10.0,                   !- Minimum Zone Temperature when Cooling {C}
    30.0,                    !- Maximum Zone Temperature when Heating {C}
    0.1,                     !- Delta Temperature {deltaC}
    INTAKE,                  !- Earthtube Type
    400.0,                   !- Fan Pressure Rise {Pa}
    0.9,                     !- Fan Total Efficiency
    0.25,                    !- Pipe Radius {m}
    0.01,                    !- Pipe Thickness {m}
    100.0,                   !- Pipe Length {m}
    50.0,                    !- Pipe Thermal Conductivity {W/m-K}
    3,                       !- Pipe Depth Under Ground Surface {m}
    HeavyAndSaturated,       !- Soil Condition
    12.68846,                !- Average Soil Surface Temperature {C}
    5.893740,                !- Amplitude of Soil Surface Temperature {deltaC}
    2,                       !- Phase Constant of Soil Surface Temperature {days}
    0.6060000,               !- Constant Term Flow Coefficient
    2.0199999E-02,           !- Temperature Term Flow Coefficient
    5.9800001E-04,           !- Velocity Term Flow Coefficient
    0.0000000E+00;           !- Velocity Squared Term Flow Coefficient

  Zone,
    ZONE 3,                  !- Name
    0.0000000E+00,           !- Direction of Relative North {deg}
    201.980000,              !- X Origin {m}
    4.580000,                !- Y Origin {m}
    0.0000000E+00,           !- Z Origin {m}
    1,                       !- Type
    1,                       !- Multiplier
    autocalculate,           !- Ceiling Height {m}
    autocalculate;           !- Volume {m3}

  People,
    ZONE 3 People 1,         !- Name
    ZONE 3,                  !- Zone or ZoneList or Space or SpaceList Name
    BLDG Sch   1,            !- Number of People Schedule Name
    people,                  !- Number of People Calculation Method
    4.000000,                !- Number of People
    ,                        !- People per Floor Area {person/m2}
    ,                        !- Floor Area per Person {m2/person}
    0.6000000,               !- Fraction Radiant
    ,                        !- Sensible Heat Fraction
    Activity Lvl   1;        !- Activity Level Schedule Name

  Lights,
    ZONE 3 Lights 1,         !- Name
    ZONE 3,                  !- Zone or ZoneList or Space or SpaceList Name
    BLDG Sch   2,            !- Schedule Name
    LightingLevel,           !- Design Level Calculation Method
    950.0000,                !- Lighting Level {W}
    ,                        !- Watts per Zone Floor Area {W/m2}
    ,                        !- Watts per Person {W/person}
    0.0000000E+00,           !- Return Air Fraction
    0.4000000,               !- Fraction Radiant
    0.2000000,               !- Fraction Visible
    0.0000000E+00,           !- Fraction Replaceable
    GeneralLights;           !- End-Use Subcategory

  ElectricEquipment,
    ZONE 3 ElecEq 1,         !- Name
    ZONE 3,                  !- Zone or ZoneList or Space or SpaceList Name
    BLDG Sch   2,            !- Schedule Name
    EquipmentLevel,          !- Design Level Calculation Method
    480.0000,                !- Design Level {W}
    ,                        !- Watts per Zone Floor Area {W/m2}
    ,                        !- Watts per Person {W/person}
    0.0000000E+00,           !- Fraction Latent
    0.3000000,               !- Fraction Radiant
    0.0000000E+00;           !- Fraction Lost

  ZoneEarthtube,
    ZONE 3,                  !- Zone Name
    BLDG Sch   3,            !- Schedule Name
    1.0,                     !- Design Flow Rate {m3/s}
    -10.0,                   !- Minimum Zone Temperature when Cooling {C}
    30.0,                    !- Maximum Zone Temperature when Heating {C}
    0.1,                     !- Delta Temperature {deltaC}
    EXHAUST,                 !- Earthtube Type
    400.0,                   !- Fan Pressure Rise {Pa}
    0.8,                     !- Fan Total Efficiency
    0.25,                    !- Pipe Radius {m}
    0.01,                    !- Pipe Thickness {m}
    100.0,                   !- Pipe Length {m}
    50.0,                    !- Pipe Thermal Conductivity {W/m-K}
    3.0,                     !- Pipe Depth Under Ground Surface {m}
    HeavyAndSaturated,       !- Soil Condition
    12.68846,                !- Average Soil Surface Temperature {C}
    5.893740,                !- Amplitude of Soil Surface Temperature {deltaC}
    2,                       !- Phase Constant of Soil Surface Temperature {days}
    0.6060000,               !- Constant Term Flow Coefficient
    2.0199999E-02,           !- Temperature Term Flow Coefficient
    5.9800001E-04,           !- Velocity Term Flow Coefficient
    0.0000000E+00;           !- Velocity Squared Term Flow Coefficient

  GlobalGeometryRules,
    UpperLeftCorner,         !- Starting Vertex Position
    CounterClockWise,        !- Vertex Entry Direction
    World,                   !- Coordinate System
    ,                        !- Daylighting Reference Point Coordinate System
    World;                   !- Rectangular Surface Coordinate System

  BuildingSurface:Detailed,
    Zn001:Wall001,           !- Name
    Wall,                    !- Surface Type
    EXTERIOR,                !- Construction Name
    ZONE 1,                  !- Zone Name
    ,                        !- Space Name
    Outdoors,                !- Outside Boundary Condition
    ,                        !- Outside Boundary Condition Object
    SunExposed,              !- Sun Exposure
    WindExposed,             !- Wind Exposure
    0.5000000,               !- View Factor to Ground
    4,                       !- Number of Vertices
    1.980000,5.980000,10.00000,  !- X,Y,Z ==> Vertex 1 {m}
    1.980000,5.980000,0.0000000E+00,  !- X,Y,Z ==> Vertex 2 {m}
    7.280000,5.980000,0.0000000E+00,  !- X,Y,Z ==> Vertex 3 {m}