!-Generator IDFEditor 1.34
!-Option OriginalOrderTop UseSpecialFormat
!-NOTE: All comments with '!-' are ignored by the IDFEditor and are generated automatically.
!-      Use '!' comments if they need to be retained when using the IDFEditor.
! FurnaceWithDXSystemComfortControl.idf
! Basic file description:  1 story building divided into 3 interior conditioned zones. Roof with no plenum.
!                          No ground contact with floor.
!
! Highlights:              Example of furnace with a DX cooling coil and gas heating coil and thermal comfort control.
!
! Simulation Location/Run: USA_FL_Miami_TMY2-12839, 2 design days, 1 run periods,
!                          Run Control executes design days. The run period is not simulated.
!
! Location:                Miami, FL USA
!
! Design Days:             MIAMI_FL_USA Annual Heating 99.6%, MaxDB=8°C
!                          MIAMI_FL_USA Annual Cooling (DB=>MWB) .4%, MaxDB=33.1°C MWB=25.3°C
!
! Simulation Location/Run: USA_FL_Miami_TMY2-12839, 2 design days, 1 run periods,
!
! Run Control:             No Zone or System sizing required (design days only, see RUN CONTROL object)
!
! Building: Single floor rectangular L-shaped building 40 ft south wall, 40 ft west wall, zone height 10 feet.
!           There is a single window in the West zone south wall. The walls are 1 in stucco over 4 in common brick
!           and gypboard. The roof is a built up roof with 1/2 in stone over 3/8 in felt over R30 insulation
!           supported by 2 in heavy weight concrete. The window is double pane clear 3mm glass.
!           The window to wall ratio is approximately 0.07.
!
!           The building is oriented due north.
!
! Floor Area:        130.1 m2 (1403 ft2)
! Number of Stories: 1
!
! Zone Description Details:
!
!       (0,12.192,0)                 (9.144,12.192,0)
!           ________________________________
!          |                                |
!          |                                |
!          |                                |
!          |                                |
!          |           North                |
!          |                                |
!          |                                |
!          |             (6.096,6.096,0)    |
!          |________________________________|____________ (12.192,6.069,0)
!          | (0,6.096,0)        |    (9.144,6.096,0)     |
!          |                    |                        |
!          |                    |                        |
!          |                    |                        |
!          |       West         |         East           |    window = *
!          |                    |                        |
!          |                    |                        |
!          |                    |                        |
!          |___**************___|________________________|
!
!      (0,0,0)             (6.069,0,0)               (12.192,0,0)
!
! Internal gains description:     ZONE West   - lighting is 0 watts, equip is 1000 watts, 3 occupants
! Internal gains description:     ZONE North  - lighting is 500 watts, equip is 1000 watts, 4 occupants
! Internal gains description:     ZONE East   - lighting is 500 watts, equip is 1000 watts, 3 occupants
!
! Interzone Surfaces:             3 interzone surfaces (see diagram)
! Internal Mass:                  None
! People:                         10
! Lights:                         2343 W
! Equipment:                      7323 W
! Windows:                        1 - double pane clear 3mm glass
! Detached Shading:               None
! Daylight:                       None
! Natural Ventilation:            None
! Compact Schedules:              Yes
! Solair Distribution:            FullInteriorAndExterior
!
! HVAC:                           3 zone central system using single air loop. DX cooling coil and gas heating coil.
!                                 Thermostat setting at 20 C in winter with 15 C set back temperature, 24 C in summer
!                                 with 30 C set back temperature. Cooling coil off in winter, heating coil on all year.
!                                 Single heating comfort control is set to heating PMV = -0.4 between 8 and 12, and
!                                 single heating cooling comfort control is set to PMV = -0.3 between 13 and 17 in winter
!                                 and fall. Single cooling comfort control is set to cooling PMV = +0.2 between 8 and 12,
!                                 and dual thermal comfort control is used with with heating PMV -0.3 and cooling PMV +0.3
!                                 between 13 and 17 in spring and summer.
!                                 The diffrent comfort controls may not be realistic. The purpose is to show how these control
!                                 objects work in this example input file.
!
! Zonal Equipment:                AirTerminal:SingleDuct:Uncontrolled
! Central Air Handling Equipment: Yes
! System Equipment Autosize:      No (chilled water loop volume is autosized although not used)
! Purchased Cooling:              No
! Purchased Heating:              No
! Purchased Chilled Water:        Yes (not used)
! Purchased Hot Water:            Yes
! HVAC System:                    AirLoopHVAC:Unitary:Furnace:HeatCool
! Coils:                          Coil:Cooling:DX:SingleSpeed, Coil:Heating:Fuel
! Pumps:                          None
! Boilers:                        None
! Chillers:                       None
! Towers:                         None
!
! Results:
! Standard Reports:               None
! Timestep or Hourly Variables:   Hourly
! Time bins Report:               None
! HTML Report:                    None
! Environmental Emissions:        None
! Utility Tariffs:                None
!

  Version,24.1;

  Building,
    NONE,                    !- Name
    0,                       !- North Axis {deg}
    Suburbs,                 !- Terrain
    3.9999999E-02,           !- Loads Convergence Tolerance Value {W}
    0.4000000,               !- Temperature Convergence Tolerance Value {deltaC}
    FullInteriorAndExterior, !- Solar Distribution
    25,                      !- Maximum Number of Warmup Days
    6;                       !- Minimum Number of Warmup Days

  Timestep,6;

  SurfaceConvectionAlgorithm:Inside,TARP;

  SurfaceConvectionAlgorithm:Outside,DOE-2;

  HeatBalanceAlgorithm,ConductionTransferFunction;

  Output:DebuggingData,
    No,                      !- Report Debugging Data
    No;                      !- Report During Warmup

  SimulationControl,
    No,                      !- Do Zone Sizing Calculation
    No,                      !- Do System Sizing Calculation
    No,                      !- Do Plant Sizing Calculation
    Yes,                     !- Run Simulation for Sizing Periods
    No,                      !- Run Simulation for Weather File Run Periods
    No,                      !- Do HVAC Sizing Simulation for Sizing Periods
    1;                       !- Maximum Number of HVAC Sizing Simulation Passes

  RunPeriod,
    Run Period 1,            !- Name
    1,                       !- Begin Month
    1,                       !- Begin Day of Month
    ,                        !- Begin Year
    12,                      !- End Month
    31,                      !- End Day of Month
    ,                        !- End Year
    Tuesday,                 !- Day of Week for Start Day
    Yes,                     !- Use Weather File Holidays and Special Days
    Yes,                     !- Use Weather File Daylight Saving Period
    No,                      !- Apply Weekend Holiday Rule
    Yes,                     !- Use Weather File Rain Indicators
    Yes;                     !- Use Weather File Snow Indicators

!  WMO=722020 Time Zone=NAE        (GMT-05:00) Eastern Time (US & Canada)
!  Data Source=ASHRAE 2005 Annual Design Conditions

  RunPeriodControl:DaylightSavingTime,
    1st Sunday in April,     !- Start Date
    Last Sunday in October;  !- End Date

  Site:Location,
    MIAMI_FL_USA_WMO_722020, !- Name
    25.78,                   !- Latitude {deg}
    -80.27,                  !- Longitude {deg}
    -5.00,                   !- Time Zone {hr}
    2.00;                    !- Elevation {m}

! Using Design Conditions from "Climate Design Data 2005 ASHRAE Handbook"
! MIAMI_FL_USA Extreme Annual Wind Speeds, 1%=9.4m/s, 2.5%=8.6m/s, 5%=8m/s
! MIAMI_FL_USA Extreme Annual Temperatures, Max Drybulb=34.7°C Min Drybulb=4.4°C
! MIAMI_FL_USA Annual Heating Design Conditions Wind Speed=4.4m/s Wind Dir=340
! Coldest Month=January
! MIAMI_FL_USA Annual Heating 99.6%, MaxDB=8°C

  SizingPeriod:DesignDay,
    MIAMI Ann Htg 99.6% Condns DB,  !- Name
    1,                       !- Month
    21,                      !- Day of Month
    WinterDesignDay,         !- Day Type
    8,                       !- Maximum Dry-Bulb Temperature {C}
    0.0,                     !- Daily Dry-Bulb Temperature Range {deltaC}
    ,                        !- Dry-Bulb Temperature Range Modifier Type
    ,                        !- Dry-Bulb Temperature Range Modifier Day Schedule Name
    Wetbulb,                 !- Humidity Condition Type
    8,                       !- Wetbulb or DewPoint at Maximum Dry-Bulb {C}
    ,                        !- Humidity Condition Day Schedule Name
    ,                        !- Humidity Ratio at Maximum Dry-Bulb {kgWater/kgDryAir}
    ,                        !- Enthalpy at Maximum Dry-Bulb {J/kg}
    ,                        !- Daily Wet-Bulb Temperature Range {deltaC}
    101301.,                 !- Barometric Pressure {Pa}
    4.4,                     !- Wind Speed {m/s}
    340,                     !- Wind Direction {deg}
    No,                      !- Rain Indicator
    No,                      !- Snow Indicator
    No,                      !- Daylight Saving Time Indicator
    ASHRAEClearSky,          !- Solar Model Indicator
    ,                        !- Beam Solar Day Schedule Name
    ,                        !- Diffuse Solar Day Schedule Name
    ,                        !- ASHRAE Clear Sky Optical Depth for Beam Irradiance (taub) {dimensionless}
    ,                        !- ASHRAE Clear Sky Optical Depth for Diffuse Irradiance (taud) {dimensionless}
    0.00;                    !- Sky Clearness

! MIAMI Annual Cooling Design Conditions Wind Speed=4.7m/s Wind Dir=140
! Hottest Month=July
! MIAMI_FL_USA Annual Cooling (DB=>MWB) .4%, MaxDB=33.1°C MWB=25.3°C

  SizingPeriod:DesignDay,
    MIAMI Ann Clg .4% Condns DB=>MWB,  !- Name
    7,                       !- Month
    21,                      !- Day of Month
    SummerDesignDay,         !- Day Type
    33.1,                    !- Maximum Dry-Bulb Temperature {C}
    6.7,                     !- Daily Dry-Bulb Temperature Range {deltaC}
    ,                        !- Dry-Bulb Temperature Range Modifier Type
    ,                        !- Dry-Bulb Temperature Range Modifier Day Schedule Name
    Wetbulb,                 !- Humidity Condition Type
    25.3,                    !- Wetbulb or DewPoint at Maximum Dry-Bulb {C}
    ,                        !- Humidity Condition Day Schedule Name
    ,                        !- Humidity Ratio at Maximum Dry-Bulb {kgWater/kgDryAir}
    ,                        !- Enthalpy at Maximum Dry-Bulb {J/kg}
    ,                        !- Daily Wet-Bulb Temperature Range {deltaC}
    101301.,                 !- Barometric Pressure {Pa}
    4.7,                     !- Wind Speed {m/s}
    140,                     !- Wind Direction {deg}
    No,                      !- Rain Indicator
    No,                      !- Snow Indicator
    No,                      !- Daylight Saving Time Indicator
    ASHRAEClearSky,          !- Solar Model Indicator
    ,                        !- Beam Solar Day Schedule Name
    ,                        !- Diffuse Solar Day Schedule Name
    ,                        !- ASHRAE Clear Sky Optical Depth for Beam Irradiance (taub) {dimensionless}
    ,                        !- ASHRAE Clear Sky Optical Depth for Diffuse Irradiance (taud) {dimensionless}
    1.00;                    !- Sky Clearness

  Site:GroundTemperature:BuildingSurface,21.0,21.5,22.0,22.2,22.2,22.2,22.2,22.2,22.2,22.0,21.5,21.0;

  Material,
    A1 - 1 IN STUCCO,        !- Name
    Smooth,                  !- Roughness
    2.5389841E-02,           !- Thickness {m}
    0.6918309,               !- Conductivity {W/m-K}
    1858.142,                !- Density {kg/m3}
    836.8000,                !- Specific Heat {J/kg-K}
    0.9000000,               !- Thermal Absorptance
    0.9200000,               !- Solar Absorptance
    0.9200000;               !- Visible Absorptance

  Material,
    C4 - 4 IN COMMON BRICK,  !- Name
    Rough,                   !- Roughness
    0.1014984,               !- Thickness {m}
    0.7264224,               !- Conductivity {W/m-K}
    1922.216,                !- Density {kg/m3}
    836.8000,                !- Specific Heat {J/kg-K}
    0.9000000,               !- Thermal Absorptance
    0.7600000,               !- Solar Absorptance
    0.7600000;               !- Visible Absorptance

  Material,
    E1 - 3 / 4 IN PLASTER OR GYP BOARD,  !- Name
    Smooth,                  !- Roughness
    1.9050000E-02,           !- Thickness {m}
    0.7264224,               !- Conductivity {W/m-K}
    1601.846,                !- Density {kg/m3}
    836.8000,                !- Specific Heat {J/kg-K}
    0.9000000,               !- Thermal Absorptance
    0.9200000,               !- Solar Absorptance
    0.9200000;               !- Visible Absorptance

  Material,
    C6 - 8 IN CLAY TILE,     !- Name
    Smooth,                  !- Roughness
    0.2033016,               !- Thickness {m}
    0.5707605,               !- Conductivity {W/m-K}
    1121.292,                !- Density {kg/m3}
    836.8000,                !- Specific Heat {J/kg-K}
    0.9000000,               !- Thermal Absorptance
    0.8200000,               !- Solar Absorptance
    0.8200000;               !- Visible Absorptance

  Material,
    C10 - 8 IN HW CONCRETE,  !- Name
    MediumRough,             !- Roughness
    0.2033016,               !- Thickness {m}
    1.729577,                !- Conductivity {W/m-K}
    2242.585,                !- Density {kg/m3}
    836.8000,                !- Specific Heat {J/kg-K}
    0.9000000,               !- Thermal Absorptance
    0.6500000,               !- Solar Absorptance
    0.6500000;               !- Visible Absorptance

  Material,
    E2 - 1 / 2 IN SLAG OR STONE,  !- Name
    Rough,                   !- Roughness
    1.2710161E-02,           !- Thickness {m}
    1.435549,                !- Conductivity {W/m-K}
    881.0155,                !- Density {kg/m3}
    1673.600,                !- Specific Heat {J/kg-K}
    0.9000000,               !- Thermal Absorptance
    0.5500000,               !- Solar Absorptance
    0.5500000;               !- Visible Absorptance

  Material,
    E3 - 3 / 8 IN FELT AND MEMBRANE,  !- Name
    Rough,                   !- Roughness
    9.5402403E-03,           !- Thickness {m}
    0.1902535,               !- Conductivity {W/m-K}
    1121.292,                !- Density {kg/m3}
    1673.600,                !- Specific Heat {J/kg-K}
    0.9000000,               !- Thermal Absorptance
    0.7500000,               !- Solar Absorptance
    0.7500000;               !- Visible Absorptance

  Material,
    R30 CEILING INSULATION,  !- Name
    VeryRough,               !- Roughness
    2.28E-01,                !- Thickness {m}
    4.3239430E-02,           !- Conductivity {W/m-K}
    91.30524,                !- Density {kg/m3}
    836.8000,                !- Specific Heat {J/kg-K}
    0.9000000,               !- Thermal Absorptance
    0.5000000,               !- Solar Absorptance
    0.5000000;               !- Visible Absorptance

  Material,
    C12 - 2 IN HW CONCRETE,  !- Name
    MediumRough,             !- Roughness
    5.0901599E-02,           !- Thickness {m}
    1.729577,                !- Conductivity {W/m-K}
    2242.585,                !- Density {kg/m3}
    836.8000,                !- Specific Heat {J/kg-K}
    0.9000000,               !- Thermal Absorptance
    0.6500000,               !- Solar Absorptance
    0.6500000;               !- Visible Absorptance

! ID 2

  WindowMaterial:Glazing,
    CLEAR 3MM,               !- Name
    SpectralAverage,         !- Optical Data Type
    ,                        !- Window Glass Spectral Data Set Name
    0.003,                   !- Thickness {m}
    0.837,                   !- Solar Transmittance at Normal Incidence
    0.075,                   !- Front Side Solar Reflectance at Normal Incidence
    0.075,                   !- Back Side Solar Reflectance at Normal Incidence
    0.898,                   !- Visible Transmittance at Normal Incidence
    0.081,                   !- Front Side Visible Reflectance at Normal Incidence
    0.081,                   !- Back Side Visible Reflectance at Normal Incidence
    0.0,                     !- Infrared Transmittance at Normal Incidence
    0.84,                    !- Front Side Infrared Hemispherical Emissivity
    0.84,                    !- Back Side Infrared Hemispherical Emissivity
    0.9;                     !- Conductivity {W/m-K}

  WindowMaterial:Gas,
    AIR 6MM,                 !- Name
    Air,                     !- Gas Type
    0.0063;                  !- Thickness {m}

  Construction,
    EXTWALL80,               !- Name
    A1 - 1 IN STUCCO,        !- Outside Layer
    C4 - 4 IN COMMON BRICK,  !- Layer 2
    E1 - 3 / 4 IN PLASTER OR GYP BOARD;  !- Layer 3

  Construction,
    PARTITION06,             !- Name
    E1 - 3 / 4 IN PLASTER OR GYP BOARD,  !- Outside Layer
    C6 - 8 IN CLAY TILE,     !- Layer 2
    E1 - 3 / 4 IN PLASTER OR GYP BOARD;  !- Layer 3

  Construction,
    FLOOR SLAB 8 IN,         !- Name
    C10 - 8 IN HW CONCRETE;  !- Outside Layer

  Construction,
    ROOF34,                  !- Name
    E2 - 1 / 2 IN SLAG OR STONE,  !- Outside Layer
    E3 - 3 / 8 IN FELT AND MEMBRANE,  !- Layer 2
    R30 CEILING INSULATION,  !- Layer 3
    C12 - 2 IN HW CONCRETE;  !- Layer 4

! 2000  U=3.23  SC= .88  SHGC=.76  TSOL=.70  TVIS=.81

  Construction,
    Dbl Clr 3mm/6mm Air,     !- Name
    CLEAR 3MM,               !- Outside Layer
    AIR 6MM,                 !- Layer 2
    CLEAR 3MM;               !- Layer 3

! original zone origin (0,0,0)

  Zone,
    WEST ZONE,               !- Name
    0,                       !- Direction of Relative North {deg}
    0,                       !- X Origin {m}
    0,                       !- Y Origin {m}
    0,                       !- Z Origin {m}
    1,                       !- Type
    1,                       !- Multiplier
    autocalculate,           !- Ceiling Height {m}
    autocalculate;           !- Volume {m3}

! original zone origin (6.096,0,0)

  Zone,
    EAST ZONE,               !- Name
    0,                       !- Direction of Relative North {deg}
    0,                       !- X Origin {m}
    0,                       !- Y Origin {m}
    0,                       !- Z Origin {m}
    1,                       !- Type
    1,                       !- Multiplier
    autocalculate,           !- Ceiling Height {m}
    autocalculate;           !- Volume {m3}

! original zone origin (0,6.096,0)

  Zone,
    NORTH ZONE,              !- Name
    0,                       !- Direction of Relative North {deg}
    0,                       !- X Origin {m}
    0,                       !- Y Origin {m}
    0,                       !- Z Origin {m}
    1,                       !- Type
    1,                       !- Multiplier
    autocalculate,           !- Ceiling Height {m}
    autocalculate;           !- Volume {m3}

  GlobalGeometryRules,
    UpperLeftCorner,         !- Starting Vertex Position
    CounterClockWise,        !- Vertex Entry Direction
    World;                   !- Coordinate System

  BuildingSurface:Detailed,
    Zn001:Wall001,           !- Name
    Wall,                    !- Surface Type
    EXTWALL80,               !- Construction Name
    WEST ZONE,               !- Zone Name
    ,                        !- Space Name
    Outdoors,                !- Outside Boundary Condition
    ,                        !- Outside Boundary Condition Object
    SunExposed,              !- Sun Exposure
    WindExposed,             !- Wind Exposure
    0.5000000,               !- View Factor to Ground
    4,                       !- Number of Vertices
    0,0,3.048000,  !- X,Y,Z ==> Vertex 1 {m}
    0,0,0,  !- X,Y,Z ==> Vertex 2 {m}
    6.096000,0,0,  !- X,Y,Z ==> Vertex 3 {m}
    6.096000,0,3.048000;  !- X,Y,Z ==> Vertex 4 {m}

  BuildingSurface:Detailed,
    Zn001:Wall002,           !- Name
    Wall,                    !- Surface Type
    EXTWALL80,               !- Construction Name
    WEST ZONE,               !- Zone Name
    ,                        !- Space Name
    Outdoors,                !- Outside Boundary Condition
    ,                        !- Outside Boundary Condition Object
    SunExposed,              !- Sun Exposure
    WindExposed,             !- Wind Exposure
    0.5000000,               !- View Factor to Ground
    4,                       !- Number of Vertices
    0,6.096000,3.048000,  !- X,Y,Z ==> Vertex 1 {m}
    0,6.096000,0,  !- X,Y,Z ==> Vertex 2 {m}
    0,0,0,  !- X,Y,Z ==> Vertex 3 {m}
    0,0,3.048000;  !- X,Y,Z ==> Vertex 4 {m}

  BuildingSurface:Detailed,
    Zn001:Wall003,           !- Name
    Wall,                    !- Surface Type
    PARTITION06,             !- Construction Name
    WEST ZONE,               !- Zone Name
    ,                        !- Space Name
    Surface,                 !- Outside Boundary Condition
    Zn003:Wall004,           !- Outside Boundary Condition Object
    NoSun,                   !- Sun Exposure
    NoWind,                  !- Wind Exposure
    0.5000000,               !- View Factor to Ground
    4,                       !- Number of Vertices
    6.096000,6.096000,3.048000,  !- X,Y,Z ==> Vertex 1 {m}
    6.096000,6.096000,0,  !- X,Y,Z ==> Vertex 2 {m}
    0,6.096000,0,  !- X,Y,Z ==> Vertex 3 {m}
    0,6.096000,3.048000;  !- X,Y,Z ==> Vertex 4 {m}

  BuildingSurface:Detailed,
    Zn001:Wall004,           !- Name
    Wall,                    !- Surface Type
    PARTITION06,             !- Construction Name
    WEST ZONE,               !- Zone Name
    ,                        !- Space Name
    Surface,                 !- Outside Boundary Condition
    Zn002:Wall004,           !- Outside Boundary Condition Object
    NoSun,                   !- Sun Exposure
    NoWind,                  !- Wind Exposure
    0.5000000,               !- View Factor to Ground
    4,                       !- Number of Vertices
    6.096000,0,3.048000,  !- X,Y,Z ==> Vertex 1 {m}
    6.096000,0,0,  !- X,Y,Z ==> Vertex 2 {m}
    6.096000,6.096000,0,  !- X,Y,Z ==> Vertex 3 {m}
    6.096000,6.096000,3.048000;  !- X,Y,Z ==> Vertex 4 {m}

  BuildingSurface:Detailed,
    Zn001:Flr001,            !- Name
    Floor,                   !- Surface Type
    FLOOR SLAB 8 IN,         !- Construction Name
    WEST ZONE,               !- Zone Name
    ,                        !- Space Name
    Surface,                 !- Outside Boundary Condition
    Zn001:Flr001,            !- Outside Boundary Condition Object
    NoSun,                   !- Sun Exposure
    NoWind,                  !- Wind Exposure
    1.000000,                !- View Factor to Ground
    4,                       !- Number of Vertices
    0,0,0,  !- X,Y,Z ==> Vertex 1 {m}
    0,6.096000,0,  !- X,Y,Z ==> Vertex 2 {m}
    6.096000,6.096000,0,  !- X,Y,Z ==> Vertex 3 {m}
    6.096000,0,0;  !- X,Y,Z ==> Vertex 4 {m}

  BuildingSurface:Detailed,
    Zn001:Roof001,           !- Name
    Roof,                    !- Surface Type
    ROOF34,                  !- Construction Name
    WEST ZONE,               !- Zone Name
    ,                        !- Space Name
    Outdoors,                !- Outside Boundary Condition
    ,                        !- Outside Boundary Condition Object
    SunExposed,              !- Sun Exposure
    WindExposed,             !- Wind Exposure
    0,                       !- View Factor to Ground
    4,                       !- Number of Vertices
    0,6.096000,3.048000,  !- X,Y,Z ==> Vertex 1 {m}
    0,0,3.048000,  !- X,Y,Z ==> Vertex 2 {m}
    6.096000,0,3.048000,  !- X,Y,Z ==> Vertex 3 {m}
    6.096000,6.096000,3.048000;  !- X,Y,Z ==> Vertex 4 {m}

  BuildingSurface:Detailed,
    Zn002:Wall001,           !- Name
    Wall,                    !- Surface Type
    EXTWALL80,               !- Construction Name
    EAST ZONE,               !- Zone Name
    ,                        !- Space Name
    Outdoors,                !- Outside Boundary Condition
    ,                        !- Outside Boundary Condition Object
    SunExposed,              !- Sun Exposure
    WindExposed,             !- Wind Exposure
    0.5000000,               !- View Factor to Ground
    4,                       !- Number of Vertices
    12.19200,6.096000,3.048000,  !- X,Y,Z ==> Vertex 1 {m}
    12.19200,6.096000,0,  !- X,Y,Z ==> Vertex 2 {m}
    9.144000,6.096000,0,  !- X,Y,Z ==> Vertex 3 {m}
    9.144000,6.096000,3.048000;  !- X,Y,Z ==> Vertex 4 {m}

  BuildingSurface:Detailed,
    Zn002:Wall002,           !- Name
    Wall,                    !- Surface Type
    EXTWALL80,               !- Construction Name
    EAST ZONE,               !- Zone Name
    ,                        !- Space Name
    Outdoors,                !- Outside Boundary Condition
    ,                        !- Outside Boundary Condition Object
    SunExposed,              !- Sun Exposure
    WindExposed,             !- Wind Exposure
    0.5000000,               !- View Factor to Ground
    4,                       !- Number of Vertices
    6.096000,0,3.048000,  !- X,Y,Z ==> Vertex 1 {m}
    6.096000,0,0,  !- X,Y,Z ==> Vertex 2 {m}
    12.19200,0,0,  !- X,Y,Z ==> Vertex 3 {m}
    12.19200,0,3.048000;  !- X,Y,Z ==> Vertex 4 {m}

  BuildingSurface:Detailed,
    Zn002:Wall003,           !- Name
    Wall,                    !- Surface Type
    EXTWALL80,               !- Construction Name
    EAST ZONE,               !- Zone Name
    ,                        !- Space Name
    Outdoors,                !- Outside Boundary Condition
    ,                        !- Outside Boundary Condition Object
    SunExposed,              !- Sun Exposure
    WindExposed,             !- Wind Exposure
    0.5000000,               !- View Factor to Ground
    4,                       !- Number of Vertices
    12.19200,0,3.048000,  !- X,Y,Z ==> Vertex 1 {m}
    12.19200,0,0,  !- X,Y,Z ==> Vertex 2 {m}
    12.19200,6.096000,0,  !- X,Y,Z ==> Vertex 3 {m}
    12.19200,6.096000,3.048000;  !- X,Y,Z ==> Vertex 4 {m}

  BuildingSurface:Detailed,
    Zn002:Wall004,           !- Name
    Wall,                    !- Surface Type
    PARTITION06,             !- Construction Name
    EAST ZONE,               !- Zone Name
    ,                        !- Space Name
    Surface,                 !- Outside Boundary Condition
    Zn001:Wall004,           !- Outside Boundary Condition Object
    NoSun,                   !- Sun Exposure
    NoWind,                  !- Wind Exposure
    0.5000000,               !- View Factor to Ground
    4,                       !- Number of Vertices
    6.096000,6.096000,3.048000,  !- X,Y,Z ==> Vertex 1 {m}
    6.096000,6.096000,0,  !- X,Y,Z ==> Vertex 2 {m}
    6.096000,0,0,  !- X,Y,Z ==> Vertex 3 {m}
    6.096000,0,3.048000;  !- X,Y,Z ==> Vertex 4 {m}

  BuildingSurface:Detailed,
    Zn002:Wall005,           !- Name
    Wall,                    !- Surface Type
    PARTITION06,             !- Construction Name
    EAST ZONE,               !- Zone Name
    ,                        !- Space Name
    Surface,                 !- Outside Boundary Condition
    Zn003:Wall005,           !- Outside Boundary Condition Object
    NoSun,                   !- Sun Exposure
    NoWind,                  !- Wind Exposure
    0.5000000,               !- View Factor to Ground
    4,                       !- Number of Vertices
    9.144000,6.096000,3.048000,  !- X,Y,Z ==> Vertex 1 {m}
    9.144000,6.096000,0,  !- X,Y,Z ==> Vertex 2 {m}
    6.096000,6.096000,0,  !- X,Y,Z ==> Vertex 3 {m}
    6.096000,6.096000,3.048000;  !- X,Y,Z ==> Vertex 4 {m}

  BuildingSurface:Detailed,
    Zn002:Flr001,            !- Name
    Floor,                   !- Surface Type
    FLOOR SLAB 8 IN,         !- Construction Name
    EAST ZONE,               !- Zone Name
    ,                        !- Space Name
    Surface,                 !- Outside Boundary Condition
    Zn002:Flr001,            !- Outside Boundary Condition Object
    NoSun,                   !- Sun Exposure
    NoWind,                  !- Wind Exposure
    1.000000,                !- View Factor to Ground
    4,                       !- Number of Vertices
    6.096000,0,0,  !- X,Y,Z ==> Vertex 1 {m}
    6.096000,6.096000,0,  !- X,Y,Z ==> Vertex 2 {m}
    12.19200,6.096000,0,  !- X,Y,Z ==> Vertex 3 {m}
    12.19200,0,0;  !- X,Y,Z ==> Vertex 4 {m}

  BuildingSurface:Detailed,
    Zn002:Roof001,           !- Name
    Roof,                    !- Surface Type
    ROOF34,                  !- Construction Name
    EAST ZONE,               !- Zone Name
    ,                        !- Space Name
    Outdoors,                !- Outside Boundary Condition
    ,                        !- Outside Boundary Condition Object
    SunExposed,              !- Sun Exposure
    WindExposed,             !- Wind Exposure
    0,                       !- View Factor to Ground
    4,                       !- Number of Vertices
    6.096000,6.096000,3.048000,  !- X,Y,Z ==> Vertex 1 {m}
    6.096000,0,3.048000,  !- X,Y,Z ==> Vertex 2 {m}
    12.19200,0,3.048000,  !- X,Y,Z ==> Vertex 3 {m}