!-Generator IDFEditor 1.34
!-Option OriginalOrderTop UseSpecialFormat
!-NOTE: All comments with '!-' are ignored by the IDFEditor and are generated automatically.
!-      Use '!' comments if they need to be retained when using the IDFEditor.
! FurnacePLRHeatingCoil.idf (Constant Volume blowthru furnace and unitary system, heat only, gas heater)
! Basic file description:  1 story building divided into 3 interior conditioned zones. Roof with no plenum.
!                          Concrete floor is in contact with the ground.
!
! Highlights:              Example of heating coil with cycling losses.
!
! Simulation Location/Run: Chicago Ohare Intl Ap IL USA WMO=725300, 2 design days, 2 run periods,
!                          Run Control executes the design days only.
!
! Location:                Chicago, IL
!
! Design Days:             Chicago Ohare Intl Ap IL USA Annual Heating 99%, MaxDB=-16.6°C
!                          Chicago Ohare Intl Ap IL USA Annual Cooling (DB=>MWB) 1%, MaxDB=31.6°C MWB=23°C
!
! Run Period (Weather File): 1/1 - 12/31.
!
! Run Control:             No Zone or System sizing required (design days only, see RUN CONTROL object)
!
! Building: Single floor rectangular L-shaped building 40 ft south wall, 40 ft west wall, zone height 10 feet.
!           There is a single window in the West zone south wall. The walls are 4 in face brick over 4 in block
!           w/ 3 in. isulation and gypboard. The roof is a built up roof with 1/2 in stone over 3/8 in felt over 6 in.
!           dense insulation supported by 2 in heavy weight concrete. The window is double pane 3mm clear.
!           The window to wall ratio is approximately 0.07. The concrete slab is in contact with the ground.
!
!           The building is oriented due north.
!
! Floor Area:        130.1 m2 (1403 ft2)
! Number of Stories: 1
!
! Zone Description Details:
!
!       (0,12.192,0)                 (9.144,12.192,0)
!           ________________________________
!          |                                |
!          |                                |
!          |                                |
!          |                                |
!          |           North                |
!          |          (zone 3)              |
!          |                                |
!          |             (6.096,6.096,0)    |
!          |________________________________|____________ (12.192,6.069,0)
!          | (0,6.096,0)        |    (9.144,6.096,0)     |
!          |                    |                        |
!          |                    |                        |
!          |                    |                        |
!          |        West        |         East           |    window = *
!          |      (zone 1)      |       (zone 2)         |
!          |                    |                        |
!          |                    |                        |
!          |___**************___|________________________|
!
!      (0,0,0)             (6.069,0,0)               (12.192,0,0)
!
! Internal gains description:     ZONE West  - lighting is 0 watts, equip is 2928.751 watts, 3 occupants
! Internal gains description:     ZONE North - lighting is 878.6252 watts, equip is 2928.751 watts, 4 occupants
! Internal gains description:     ZONE East  - lighting is 1464.375 watts, equip is 1464.375 watts, 3 occupants
!
! Interzone Surfaces:             3 interzone surfaces (see diagram)
! Internal Mass:                  None
! People:                         10
! Lights:                         2343 W
! Equipment:                      7323 W
! Windows:                        1 - single pane clear 3mm glass
! Detached Shading:               None
! Daylight:                       None
! Natural Ventilation:            None
! Compact Schedules:              Yes
! Solair Distribution:            FullInteriorAndExterior
!
! HVAC:                           3 zone central system using two air loops. Central gas heating coils.
!                                 Thermostat setting at 20 C in winter with 15 C set back temperature.
!
! Zonal Equipment:                AirTerminal:SingleDuct:Uncontrolled
! Central Air Handling Equipment: Yes
! System Equipment Autosize:      No
! Purchased Cooling:              No
! Purchased Heating:              No
! Purchased Chilled Water:        No
! Purchased Hot Water:            No
! HVAC System:                    AirLoopHVAC:Unitary:Furnace:HeatOnly, AirLoopHVAC:UnitaryHeatOnly
! Coils:                          Coil:Heating:Fuel
! Pumps:                          None
! Boilers:                        None
! Chillers:                       None
! Towers:                         None
!
! Results:
! Standard Reports:               None
! Timestep or Hourly Variables:   Timestep
! Time bins Report:               None
! HTML Report:                    None
! Environmental Emissions:        None
! Utility Tariffs:                None
!

  Version,24.1;

  Building,
    NONE,                    !- Name
    0,                       !- North Axis {deg}
    Suburbs,                 !- Terrain
    3.9999999E-02,           !- Loads Convergence Tolerance Value {W}
    0.4000000,               !- Temperature Convergence Tolerance Value {deltaC}
    FullInteriorAndExterior, !- Solar Distribution
    25,                      !- Maximum Number of Warmup Days
    6;                       !- Minimum Number of Warmup Days

  Timestep,6;

  SurfaceConvectionAlgorithm:Inside,TARP;

  SurfaceConvectionAlgorithm:Outside,DOE-2;

  HeatBalanceAlgorithm,ConductionTransferFunction;

  Output:DebuggingData,
    No,                      !- Report Debugging Data
    No;                      !- Report During Warmup

  SimulationControl,
    No,                      !- Do Zone Sizing Calculation
    No,                      !- Do System Sizing Calculation
    No,                      !- Do Plant Sizing Calculation
    Yes,                     !- Run Simulation for Sizing Periods
    No,                      !- Run Simulation for Weather File Run Periods
    No,                      !- Do HVAC Sizing Simulation for Sizing Periods
    1;                       !- Maximum Number of HVAC Sizing Simulation Passes

  RunPeriod,
    Run Period 1,            !- Name
    1,                       !- Begin Month
    1,                       !- Begin Day of Month
    ,                        !- Begin Year
    12,                      !- End Month
    31,                      !- End Day of Month
    ,                        !- End Year
    Tuesday,                 !- Day of Week for Start Day
    Yes,                     !- Use Weather File Holidays and Special Days
    Yes,                     !- Use Weather File Daylight Saving Period
    No,                      !- Apply Weekend Holiday Rule
    Yes,                     !- Use Weather File Rain Indicators
    Yes;                     !- Use Weather File Snow Indicators

 ! Using Design Conditions from "Climate Design Data 2009 ASHRAE Handbook"

  Site:Location,
    Chicago Ohare Intl Ap IL USA WMO=725300,  !- Name
    41.99,                   !- Latitude {deg}
    -87.91,                  !- Longitude {deg}
    -6.00,                   !- Time Zone {hr}
    205.00;                  !- Elevation {m}

 ! Chicago Ohare Intl Ap IL USA Annual Heating 99%, MaxDB=-16.6°C

  SizingPeriod:DesignDay,
    Chicago Ohare Intl Ap Ann Htg 99% Condns DB,  !- Name
    1,                       !- Month
    21,                      !- Day of Month
    WinterDesignDay,         !- Day Type
    -16.6,                   !- Maximum Dry-Bulb Temperature {C}
    0.0,                     !- Daily Dry-Bulb Temperature Range {deltaC}
    ,                        !- Dry-Bulb Temperature Range Modifier Type
    ,                        !- Dry-Bulb Temperature Range Modifier Day Schedule Name
    Wetbulb,                 !- Humidity Condition Type
    -16.6,                   !- Wetbulb or DewPoint at Maximum Dry-Bulb {C}
    ,                        !- Humidity Condition Day Schedule Name
    ,                        !- Humidity Ratio at Maximum Dry-Bulb {kgWater/kgDryAir}
    ,                        !- Enthalpy at Maximum Dry-Bulb {J/kg}
    ,                        !- Daily Wet-Bulb Temperature Range {deltaC}
    98886.,                  !- Barometric Pressure {Pa}
    4.9,                     !- Wind Speed {m/s}
    270,                     !- Wind Direction {deg}
    No,                      !- Rain Indicator
    No,                      !- Snow Indicator
    No,                      !- Daylight Saving Time Indicator
    ASHRAEClearSky,          !- Solar Model Indicator
    ,                        !- Beam Solar Day Schedule Name
    ,                        !- Diffuse Solar Day Schedule Name
    ,                        !- ASHRAE Clear Sky Optical Depth for Beam Irradiance (taub) {dimensionless}
    ,                        !- ASHRAE Clear Sky Optical Depth for Diffuse Irradiance (taud) {dimensionless}
    0.00;                    !- Sky Clearness

 ! Chicago Ohare Intl Ap IL USA Annual Cooling (DB=>MWB) 1%, MaxDB=31.6°C MWB=23°C

  SizingPeriod:DesignDay,
    Chicago Ohare Intl Ap Ann Clg 1% Condns DB=>MWB,  !- Name
    7,                       !- Month
    21,                      !- Day of Month
    SummerDesignDay,         !- Day Type
    31.6,                    !- Maximum Dry-Bulb Temperature {C}
    10.5,                    !- Daily Dry-Bulb Temperature Range {deltaC}
    ,                        !- Dry-Bulb Temperature Range Modifier Type
    ,                        !- Dry-Bulb Temperature Range Modifier Day Schedule Name
    Wetbulb,                 !- Humidity Condition Type
    23,                      !- Wetbulb or DewPoint at Maximum Dry-Bulb {C}
    ,                        !- Humidity Condition Day Schedule Name
    ,                        !- Humidity Ratio at Maximum Dry-Bulb {kgWater/kgDryAir}
    ,                        !- Enthalpy at Maximum Dry-Bulb {J/kg}
    ,                        !- Daily Wet-Bulb Temperature Range {deltaC}
    98886.,                  !- Barometric Pressure {Pa}
    5.2,                     !- Wind Speed {m/s}
    230,                     !- Wind Direction {deg}
    No,                      !- Rain Indicator
    No,                      !- Snow Indicator
    No,                      !- Daylight Saving Time Indicator
    ASHRAEClearSky,          !- Solar Model Indicator
    ,                        !- Beam Solar Day Schedule Name
    ,                        !- Diffuse Solar Day Schedule Name
    ,                        !- ASHRAE Clear Sky Optical Depth for Beam Irradiance (taub) {dimensionless}
    ,                        !- ASHRAE Clear Sky Optical Depth for Diffuse Irradiance (taud) {dimensionless}
    1.00;                    !- Sky Clearness

  Site:GroundTemperature:BuildingSurface,20.03,20.03,20.13,20.30,20.43,20.52,20.62,20.77,20.78,20.55,20.44,20.20;

  Material,
    A2 - 4 IN DENSE FACE BRICK,  !- Name
    Rough,                   !- Roughness
    0.1000000,               !- Thickness {m}
    1.240000,                !- Conductivity {W/m-K}
    2082.400,                !- Density {kg/m3}
    920.0000,                !- Specific Heat {J/kg-K}
    0.9000000,               !- Thermal Absorptance
    0.9300000,               !- Solar Absorptance
    0.9300000;               !- Visible Absorptance

  Material,
    C2 - 4 IN LW CONCRETE BLOCK,  !- Name
    MediumRough,             !- Roughness
    0.1000000,               !- Thickness {m}
    0.3800000,               !- Conductivity {W/m-K}
    608.7000,                !- Density {kg/m3}
    830.0000,                !- Specific Heat {J/kg-K}
    0.9000000,               !- Thermal Absorptance
    0.6500000,               !- Solar Absorptance
    0.6500000;               !- Visible Absorptance

  Material,
    B2 - 3 IN INSULATION,    !- Name
    VeryRough,               !- Roughness
    7.6200000E-02,           !- Thickness {m}
    1.7480000E-02,           !- Conductivity {W/m-K}
    32.03000,                !- Density {kg/m3}
    830.0000,                !- Specific Heat {J/kg-K}
    0.9000000,               !- Thermal Absorptance
    0.5000000,               !- Solar Absorptance
    0.5000000;               !- Visible Absorptance

  Material,
    E1 - 3 / 4 IN PLASTER OR GYP BOARD,  !- Name
    Smooth,                  !- Roughness
    1.9050000E-02,           !- Thickness {m}
    0.7264224,               !- Conductivity {W/m-K}
    1601.846,                !- Density {kg/m3}
    836.8000,                !- Specific Heat {J/kg-K}
    0.9000000,               !- Thermal Absorptance
    0.9200000,               !- Solar Absorptance
    0.9200000;               !- Visible Absorptance

  Material,
    C6 - 8 IN CLAY TILE,     !- Name
    Smooth,                  !- Roughness
    0.2033016,               !- Thickness {m}
    0.5707605,               !- Conductivity {W/m-K}
    1121.292,                !- Density {kg/m3}
    836.8000,                !- Specific Heat {J/kg-K}
    0.9000000,               !- Thermal Absorptance
    0.8200000,               !- Solar Absorptance
    0.8200000;               !- Visible Absorptance

  Material,
    C10 - 8 IN HW CONCRETE,  !- Name
    MediumRough,             !- Roughness
    0.2033016,               !- Thickness {m}
    1.729577,                !- Conductivity {W/m-K}
    2242.585,                !- Density {kg/m3}
    836.8000,                !- Specific Heat {J/kg-K}
    0.9000000,               !- Thermal Absorptance
    0.6500000,               !- Solar Absorptance
    0.6500000;               !- Visible Absorptance

  Material,
    E2 - 1 / 2 IN SLAG OR STONE,  !- Name
    Rough,                   !- Roughness
    1.2710161E-02,           !- Thickness {m}
    1.435549,                !- Conductivity {W/m-K}
    881.0155,                !- Density {kg/m3}
    1673.600,                !- Specific Heat {J/kg-K}
    0.9000000,               !- Thermal Absorptance
    0.5500000,               !- Solar Absorptance
    0.5500000;               !- Visible Absorptance

  Material,
    E3 - 3 / 8 IN FELT AND MEMBRANE,  !- Name
    Rough,                   !- Roughness
    9.5402403E-03,           !- Thickness {m}
    0.1902535,               !- Conductivity {W/m-K}
    1121.292,                !- Density {kg/m3}
    1673.600,                !- Specific Heat {J/kg-K}
    0.9000000,               !- Thermal Absorptance
    0.7500000,               !- Solar Absorptance
    0.7500000;               !- Visible Absorptance

  Material,
    B5 - 6 IN DENSE INSULATION,  !- Name
    VeryRough,               !- Roughness
    1.5233904E-01,           !- Thickness {m}
    4.3239430E-02,           !- Conductivity {W/m-K}
    91.30524,                !- Density {kg/m3}
    836.8000,                !- Specific Heat {J/kg-K}
    0.9000000,               !- Thermal Absorptance
    0.5000000,               !- Solar Absorptance
    0.5000000;               !- Visible Absorptance

  Material,
    C12 - 2 IN HW CONCRETE,  !- Name
    MediumRough,             !- Roughness
    5.0901599E-02,           !- Thickness {m}
    1.729577,                !- Conductivity {W/m-K}
    2242.585,                !- Density {kg/m3}
    836.8000,                !- Specific Heat {J/kg-K}
    0.9000000,               !- Thermal Absorptance
    0.6500000,               !- Solar Absorptance
    0.6500000;               !- Visible Absorptance

  Material:NoMass,
    FINISH FLOORING - CARPET FIBROUS PAD,  !- Name
    Rough,                   !- Roughness
    0.3600000,               !- Thermal Resistance {m2-K/W}
    0.9000000,               !- Thermal Absorptance
    0.7500000,               !- Solar Absorptance
    0.7500000;               !- Visible Absorptance

  WindowMaterial:Glazing,
    WIN-LAY-GLASS-LIGHT,     !- Name
    SpectralAverage,         !- Optical Data Type
    ,                        !- Window Glass Spectral Data Set Name
    0.003,                   !- Thickness {m}
    0.90,                    !- Solar Transmittance at Normal Incidence
    0.031,                   !- Front Side Solar Reflectance at Normal Incidence
    0.031,                   !- Back Side Solar Reflectance at Normal Incidence
    0.90,                    !- Visible Transmittance at Normal Incidence
    0.05,                    !- Front Side Visible Reflectance at Normal Incidence
    0.05,                    !- Back Side Visible Reflectance at Normal Incidence
    0.0,                     !- Infrared Transmittance at Normal Incidence
    0.84,                    !- Front Side Infrared Hemispherical Emissivity
    0.84,                    !- Back Side Infrared Hemispherical Emissivity
    0.9;                     !- Conductivity {W/m-K}

  WindowMaterial:Gas,
    WinAirB1 - AIRSPACE RESISTANCE,  !- Name
    AIR,                     !- Gas Type
    1.3000000E-02;           !- Thickness {m}

  Construction,
    EXTWALL82,               !- Name
    A2 - 4 IN DENSE FACE BRICK,  !- Outside Layer
    C2 - 4 IN LW CONCRETE BLOCK,  !- Layer 2
    B2 - 3 IN INSULATION,    !- Layer 3
    E1 - 3 / 4 IN PLASTER OR GYP BOARD;  !- Layer 4

  Construction,
    PARTITION06,             !- Name
    E1 - 3 / 4 IN PLASTER OR GYP BOARD,  !- Outside Layer
    C6 - 8 IN CLAY TILE,     !- Layer 2
    E1 - 3 / 4 IN PLASTER OR GYP BOARD;  !- Layer 3

  Construction,
    FLOOR SLAB 8 IN,         !- Name
    C10 - 8 IN HW CONCRETE,  !- Outside Layer
    FINISH FLOORING - CARPET FIBROUS PAD;  !- Layer 2

  Construction,
    ROOF34,                  !- Name
    E2 - 1 / 2 IN SLAG OR STONE,  !- Outside Layer
    E3 - 3 / 8 IN FELT AND MEMBRANE,  !- Layer 2
    B5 - 6 IN DENSE INSULATION,  !- Layer 3
    C12 - 2 IN HW CONCRETE;  !- Layer 4

  Construction,
    WIN-CON-LIGHT,           !- Name
    WIN-LAY-GLASS-LIGHT,     !- Outside Layer
    WinAirB1 - AIRSPACE RESISTANCE,  !- Layer 2
    WIN-LAY-GLASS-LIGHT;     !- Layer 3

! original zone origin (0,0,0)

  Zone,
    WEST ZONE,               !- Name
    0,                       !- Direction of Relative North {deg}
    0,                       !- X Origin {m}
    0,                       !- Y Origin {m}
    0,                       !- Z Origin {m}
    1,                       !- Type
    1,                       !- Multiplier
    autocalculate,           !- Ceiling Height {m}
    autocalculate;           !- Volume {m3}

! original zone origin (6.096,0,0)

  Zone,
    EAST ZONE,               !- Name
    0,                       !- Direction of Relative North {deg}
    0,                       !- X Origin {m}
    0,                       !- Y Origin {m}
    0,                       !- Z Origin {m}
    1,                       !- Type
    1,                       !- Multiplier
    autocalculate,           !- Ceiling Height {m}
    autocalculate;           !- Volume {m3}

! original zone origin (0,6.096,0)

  Zone,
    NORTH ZONE,              !- Name
    0,                       !- Direction of Relative North {deg}
    0,                       !- X Origin {m}
    0,                       !- Y Origin {m}
    0,                       !- Z Origin {m}
    1,                       !- Type
    1,                       !- Multiplier
    autocalculate,           !- Ceiling Height {m}
    autocalculate;           !- Volume {m3}

  GlobalGeometryRules,
    UpperLeftCorner,         !- Starting Vertex Position
    CounterClockWise,        !- Vertex Entry Direction
    World;                   !- Coordinate System

  BuildingSurface:Detailed,
    Zn001:Wall001,           !- Name
    Wall,                    !- Surface Type
    EXTWALL82,               !- Construction Name
    WEST ZONE,               !- Zone Name
    ,                        !- Space Name
    Outdoors,                !- Outside Boundary Condition
    ,                        !- Outside Boundary Condition Object
    SunExposed,              !- Sun Exposure
    WindExposed,             !- Wind Exposure
    0.5000000,               !- View Factor to Ground
    4,                       !- Number of Vertices
    0,0,3.048000,  !- X,Y,Z ==> Vertex 1 {m}
    0,0,0,  !- X,Y,Z ==> Vertex 2 {m}
    6.096000,0,0,  !- X,Y,Z ==> Vertex 3 {m}
    6.096000,0,3.048000;  !- X,Y,Z ==> Vertex 4 {m}

  BuildingSurface:Detailed,
    Zn001:Wall002,           !- Name
    Wall,                    !- Surface Type
    EXTWALL82,               !- Construction Name
    WEST ZONE,               !- Zone Name
    ,                        !- Space Name
    Outdoors,                !- Outside Boundary Condition
    ,                        !- Outside Boundary Condition Object
    SunExposed,              !- Sun Exposure
    WindExposed,             !- Wind Exposure
    0.5000000,               !- View Factor to Ground
    4,                       !- Number of Vertices
    0,6.096000,3.048000,  !- X,Y,Z ==> Vertex 1 {m}
    0,6.096000,0,  !- X,Y,Z ==> Vertex 2 {m}
    0,0,0,  !- X,Y,Z ==> Vertex 3 {m}
    0,0,3.048000;  !- X,Y,Z ==> Vertex 4 {m}

  BuildingSurface:Detailed,
    Zn001:Wall003,           !- Name
    Wall,                    !- Surface Type
    PARTITION06,             !- Construction Name
    WEST ZONE,               !- Zone Name
    ,                        !- Space Name
    Surface,                 !- Outside Boundary Condition
    Zn003:Wall004,           !- Outside Boundary Condition Object
    NoSun,                   !- Sun Exposure
    NoWind,                  !- Wind Exposure
    0.5000000,               !- View Factor to Ground
    4,                       !- Number of Vertices
    6.096000,6.096000,3.048000,  !- X,Y,Z ==> Vertex 1 {m}
    6.096000,6.096000,0,  !- X,Y,Z ==> Vertex 2 {m}
    0,6.096000,0,  !- X,Y,Z ==> Vertex 3 {m}
    0,6.096000,3.048000;  !- X,Y,Z ==> Vertex 4 {m}

  BuildingSurface:Detailed,
    Zn001:Wall004,           !- Name
    Wall,                    !- Surface Type
    PARTITION06,             !- Construction Name
    WEST ZONE,               !- Zone Name
    ,                        !- Space Name
    Surface,                 !- Outside Boundary Condition
    Zn002:Wall004,           !- Outside Boundary Condition Object
    NoSun,                   !- Sun Exposure
    NoWind,                  !- Wind Exposure
    0.5000000,               !- View Factor to Ground
    4,                       !- Number of Vertices
    6.096000,0,3.048000,  !- X,Y,Z ==> Vertex 1 {m}
    6.096000,0,0,  !- X,Y,Z ==> Vertex 2 {m}
    6.096000,6.096000,0,  !- X,Y,Z ==> Vertex 3 {m}
    6.096000,6.096000,3.048000;  !- X,Y,Z ==> Vertex 4 {m}

  BuildingSurface:Detailed,
    Zn001:Flr001,            !- Name
    Floor,                   !- Surface Type
    FLOOR SLAB 8 IN,         !- Construction Name
    WEST ZONE,               !- Zone Name
    ,                        !- Space Name
    Ground,                  !- Outside Boundary Condition
    Zn001:Flr001,            !- Outside Boundary Condition Object
    NoSun,                   !- Sun Exposure
    NoWind,                  !- Wind Exposure
    1.000000,                !- View Factor to Ground
    4,                       !- Number of Vertices
    0,0,0,  !- X,Y,Z ==> Vertex 1 {m}
    0,6.096000,0,  !- X,Y,Z ==> Vertex 2 {m}
    6.096000,6.096000,0,  !- X,Y,Z ==> Vertex 3 {m}
    6.096000,0,0;  !- X,Y,Z ==> Vertex 4 {m}

  BuildingSurface:Detailed,
    Zn001:Roof001,           !- Name
    Roof,                    !- Surface Type
    ROOF34,                  !- Construction Name
    WEST ZONE,               !- Zone Name
    ,                        !- Space Name
    Outdoors,                !- Outside Boundary Condition
    ,                        !- Outside Boundary Condition Object
    SunExposed,              !- Sun Exposure
    WindExposed,             !- Wind Exposure
    0,                       !- View Factor to Ground
    4,                       !- Number of Vertices
    0,6.096000,3.048000,  !- X,Y,Z ==> Vertex 1 {m}
    0,0,3.048000,  !- X,Y,Z ==> Vertex 2 {m}
    6.096000,0,3.048000,  !- X,Y,Z ==> Vertex 3 {m}
    6.096000,6.096000,3.048000;  !- X,Y,Z ==> Vertex 4 {m}

  BuildingSurface:Detailed,
    Zn002:Wall001,           !- Name
    Wall,                    !- Surface Type
    EXTWALL82,               !- Construction Name
    EAST ZONE,               !- Zone Name
    ,                        !- Space Name
    Outdoors,                !- Outside Boundary Condition
    ,                        !- Outside Boundary Condition Object
    SunExposed,              !- Sun Exposure
    WindExposed,             !- Wind Exposure
    0.5000000,               !- View Factor to Ground
    4,                       !- Number of Vertices
    12.19200,6.096000,3.048000,  !- X,Y,Z ==> Vertex 1 {m}
    12.19200,6.096000,0,  !- X,Y,Z ==> Vertex 2 {m}
    9.144000,6.096000,0,  !- X,Y,Z ==> Vertex 3 {m}
    9.144000,6.096000,3.048000;  !- X,Y,Z ==> Vertex 4 {m}

  BuildingSurface:Detailed,
    Zn002:Wall002,           !- Name
    Wall,                    !- Surface Type
    EXTWALL82,               !- Construction Name
    EAST ZONE,               !- Zone Name
    ,                        !- Space Name
    Outdoors,                !- Outside Boundary Condition
    ,                        !- Outside Boundary Condition Object
    SunExposed,              !- Sun Exposure
    WindExposed,             !- Wind Exposure
    0.5000000,               !- View Factor to Ground
    4,                       !- Number of Vertices
    6.096000,0,3.048000,  !- X,Y,Z ==> Vertex 1 {m}
    6.096000,0,0,  !- X,Y,Z ==> Vertex 2 {m}
    12.19200,0,0,  !- X,Y,Z ==> Vertex 3 {m}
    12.19200,0,3.048000;  !- X,Y,Z ==> Vertex 4 {m}

  BuildingSurface:Detailed,
    Zn002:Wall003,           !- Name
    Wall,                    !- Surface Type
    EXTWALL82,               !- Construction Name
    EAST ZONE,               !- Zone Name
    ,                        !- Space Name
    Outdoors,                !- Outside Boundary Condition
    ,                        !- Outside Boundary Condition Object
    SunExposed,              !- Sun Exposure
    WindExposed,             !- Wind Exposure
    0.5000000,               !- View Factor to Ground
    4,                       !- Number of Vertices
    12.19200,0,3.048000,  !- X,Y,Z ==> Vertex 1 {m}
    12.19200,0,0,  !- X,Y,Z ==> Vertex 2 {m}
    12.19200,6.096000,0,  !- X,Y,Z ==> Vertex 3 {m}
    12.19200,6.096000,3.048000;  !- X,Y,Z ==> Vertex 4 {m}

  BuildingSurface:Detailed,
    Zn002:Wall004,           !- Name
    Wall,                    !- Surface Type
    PARTITION06,             !- Construction Name
    EAST ZONE,               !- Zone Name
    ,                        !- Space Name
    Surface,                 !- Outside Boundary Condition
    Zn001:Wall004,           !- Outside Boundary Condition Object
    NoSun,                   !- Sun Exposure
    NoWind,                  !- Wind Exposure
    0.5000000,               !- View Factor to Ground
    4,                       !- Number of Vertices
    6.096000,6.096000,3.048000,  !- X,Y,Z ==> Vertex 1 {m}
    6.096000,6.096000,0,  !- X,Y,Z ==> Vertex 2 {m}
    6.096000,0,0,  !- X,Y,Z ==> Vertex 3 {m}
    6.096000,0,3.048000;  !- X,Y,Z ==> Vertex 4 {m}

  BuildingSurface:Detailed,
    Zn002:Wall005,           !- Name
    Wall,                    !- Surface Type
    PARTITION06,             !- Construction Name
    EAST ZONE,               !- Zone Name
    ,                        !- Space Name
    Surface,                 !- Outside Boundary Condition
    Zn003:Wall005,           !- Outside Boundary Condition Object
    NoSun,                   !- Sun Exposure
    NoWind,                  !- Wind Exposure
    0.5000000,               !- View Factor to Ground
    4,                       !- Number of Vertices
    9.144000,6.096000,3.048000,  !- X,Y,Z ==> Vertex 1 {m}
    9.144000,6.096000,0,  !- X,Y,Z ==> Vertex 2 {m}
    6.096000,6.096000,0,  !- X,Y,Z ==> Vertex 3 {m}
    6.096000,6.096000,3.048000;  !- X,Y,Z ==> Vertex 4 {m}

  BuildingSurface:Detailed,
    Zn002:Flr001,            !- Name
    Floor,                   !- Surface Type
    FLOOR SLAB 8 IN,         !- Construction Name
    EAST ZONE,               !- Zone Name
    ,                        !- Space Name
    Ground,                  !- Outside Boundary Condition
    Zn002:Flr001,            !- Outside Boundary Condition Object
    NoSun,                   !- Sun Exposure
    NoWind,                  !- Wind Exposure
    1.000000,                !- View Factor to Ground
    4,                       !- Number of Vertices
    6.096000,0,0,  !- X,Y,Z ==> Vertex 1 {m}
    6.096000,6.096000,0,  !- X,Y,Z ==> Vertex 2 {m}
    12.19200,6.096000,0,  !- X,Y,Z ==> Vertex 3 {m}
    12.19200,0,0;  !- X,Y,Z ==> Vertex 4 {m}

  BuildingSurface:Detailed,
    Zn002:Roof001,           !- Name
    Roof,                    !- Surface Type
    ROOF34,                  !- Construction Name
    EAST ZONE,               !- Zone Name
    ,                        !- Space Name
    Outdoors,                !- Outside Boundary Condition
    ,                        !- Outside Boundary Condition Object
    SunExposed,              !- Sun Exposure
    WindExposed,             !- Wind Exposure
    0,                       !- View Factor to Ground
    4,                       !- Number of Vertices
    6.096000,6.096000,3.048000,  !- X,Y,Z ==> Vertex 1 {m}
    6.096000,0,3.048000,  !- X,Y,Z ==> Vertex 2 {m}
    12.19200,0,3.048000,  !- X,Y,Z ==> Vertex 3 {m}
    12.19200,6.096000,3.048000;  !- X,Y,Z ==> Vertex 4 {m}

  BuildingSurface:Detailed,
    Zn003:Wall001,           !- Name
    Wall,                    !- Surface Type
    EXTWALL82,               !- Construction Name
    NORTH ZONE,              !- Zone Name
    ,                        !- Space Name
    Outdoors,                !- Outside Boundary Condition
    ,                        !- Outside Boundary Condition Object
    SunExposed,              !- Sun Exposure
    WindExposed,             !- Wind Exposure
    0.5000000,               !- View Factor to Ground