!-Generator IDFEditor 1.34
!-Option OriginalOrderTop UseSpecialFormat
!-NOTE: All comments with '!-' are ignored by the IDFEditor and are generated automatically.
!-      Use '!' comments if they need to be retained when using the IDFEditor.
!GeneratorswithPV.idf
!
! Basic file description:  This is a basic test file for EnergyPlus Photovoltaic models
!                          with no zones or heat transfer surfaces.
!                          There is one zone with some heat transfer surfaces and building. A series of photovoltaic arrays are modeled for an entire year.
!                          Demonstrates three different PV models.
! Run:     Run Period (Chicago) with two periods, 7 days each (winter and summer)
!          2 design days to facilitate reverse DD testing.
! Building: Fictional 1 zone building with one wall, one floor, and multiple Roof surfaces.
!           There is a controlled thermal zone with purchased air
!           There are five detached surfaces with different tilt and shading situations
!           Each of the five surfaces has three comparable PV arrays.
! Internal: None.
! System:   None.
! Plant:    None.
!
! Note, this file was completely changed from Ver. 1.1.1 to 1.2 to add tests for different PV generators
! note  this file was changed for Ver. 1.2.2 to add new strategies for ventilated mounting configurations

  Version,24.1;

  Timestep,4;

  Building,
    PVtest,                  !- Name
    0,                       !- North Axis {deg}
    Suburbs,                 !- Terrain
    0.04,                    !- Loads Convergence Tolerance Value {W}
    0.40,                    !- Temperature Convergence Tolerance Value {deltaC}
    FullInteriorAndExterior, !- Solar Distribution
    25,                      !- Maximum Number of Warmup Days
    6;                       !- Minimum Number of Warmup Days

  SimulationControl,
    No,                      !- Do Zone Sizing Calculation
    No,                      !- Do System Sizing Calculation
    No,                      !- Do Plant Sizing Calculation
    No,                      !- Run Simulation for Sizing Periods
    Yes,                     !- Run Simulation for Weather File Run Periods
    No,                      !- Do HVAC Sizing Simulation for Sizing Periods
    1;                       !- Maximum Number of HVAC Sizing Simulation Passes

  Site:GroundTemperature:BuildingSurface,19.96,19.94,19.99,20.04,20.09,20.17,20.21,20.24,20.23,20.20,20.17,20.12;

  Site:Location,
    CHICAGO_IL_USA TMY2-94846,  !- Name
    41.78,                   !- Latitude {deg}
    -87.75,                  !- Longitude {deg}
    -6.00,                   !- Time Zone {hr}
    190.00;                  !- Elevation {m}

! CHICAGO_IL_USA Annual Heating 99% Design Conditions DB, MaxDB= -17.3°C

  SizingPeriod:DesignDay,
    CHICAGO_IL_USA Annual Heating 99% Design Conditions DB,  !- Name
    1,                       !- Month
    21,                      !- Day of Month
    WinterDesignDay,         !- Day Type
    -17.3,                   !- Maximum Dry-Bulb Temperature {C}
    0.0,                     !- Daily Dry-Bulb Temperature Range {deltaC}
    ,                        !- Dry-Bulb Temperature Range Modifier Type
    ,                        !- Dry-Bulb Temperature Range Modifier Day Schedule Name
    Wetbulb,                 !- Humidity Condition Type
    -17.3,                   !- Wetbulb or DewPoint at Maximum Dry-Bulb {C}
    ,                        !- Humidity Condition Day Schedule Name
    ,                        !- Humidity Ratio at Maximum Dry-Bulb {kgWater/kgDryAir}
    ,                        !- Enthalpy at Maximum Dry-Bulb {J/kg}
    ,                        !- Daily Wet-Bulb Temperature Range {deltaC}
    99063.,                  !- Barometric Pressure {Pa}
    4.9,                     !- Wind Speed {m/s}
    270,                     !- Wind Direction {deg}
    No,                      !- Rain Indicator
    No,                      !- Snow Indicator
    No,                      !- Daylight Saving Time Indicator
    ASHRAEClearSky,          !- Solar Model Indicator
    ,                        !- Beam Solar Day Schedule Name
    ,                        !- Diffuse Solar Day Schedule Name
    ,                        !- ASHRAE Clear Sky Optical Depth for Beam Irradiance (taub) {dimensionless}
    ,                        !- ASHRAE Clear Sky Optical Depth for Diffuse Irradiance (taud) {dimensionless}
    0.0;                     !- Sky Clearness

! CHICAGO_IL_USA Annual Cooling 1% Design Conditions, MaxDB=  31.5°C MCWB=  23.0°C

  SizingPeriod:DesignDay,
    CHICAGO_IL_USA Annual Cooling 1% Design Conditions DB/MCWB,  !- Name
    7,                       !- Month
    21,                      !- Day of Month
    SummerDesignDay,         !- Day Type
    31.5,                    !- Maximum Dry-Bulb Temperature {C}
    10.7,                    !- Daily Dry-Bulb Temperature Range {deltaC}
    ,                        !- Dry-Bulb Temperature Range Modifier Type
    ,                        !- Dry-Bulb Temperature Range Modifier Day Schedule Name
    Wetbulb,                 !- Humidity Condition Type
    23.0,                    !- Wetbulb or DewPoint at Maximum Dry-Bulb {C}
    ,                        !- Humidity Condition Day Schedule Name
    ,                        !- Humidity Ratio at Maximum Dry-Bulb {kgWater/kgDryAir}
    ,                        !- Enthalpy at Maximum Dry-Bulb {J/kg}
    ,                        !- Daily Wet-Bulb Temperature Range {deltaC}
    99063.,                  !- Barometric Pressure {Pa}
    5.3,                     !- Wind Speed {m/s}
    230,                     !- Wind Direction {deg}
    No,                      !- Rain Indicator
    No,                      !- Snow Indicator
    No,                      !- Daylight Saving Time Indicator
    ASHRAEClearSky,          !- Solar Model Indicator
    ,                        !- Beam Solar Day Schedule Name
    ,                        !- Diffuse Solar Day Schedule Name
    ,                        !- ASHRAE Clear Sky Optical Depth for Beam Irradiance (taub) {dimensionless}
    ,                        !- ASHRAE Clear Sky Optical Depth for Diffuse Irradiance (taud) {dimensionless}
    1.0;                     !- Sky Clearness

  RunPeriod,
    Run Period 1,            !- Name
    1,                       !- Begin Month
    1,                       !- Begin Day of Month
    ,                        !- Begin Year
    1,                       !- End Month
    7,                       !- End Day of Month
    ,                        !- End Year
    ,                        !- Day of Week for Start Day
    Yes,                     !- Use Weather File Holidays and Special Days
    Yes,                     !- Use Weather File Daylight Saving Period
    No,                      !- Apply Weekend Holiday Rule
    Yes,                     !- Use Weather File Rain Indicators
    Yes;                     !- Use Weather File Snow Indicators

  RunPeriod,
    Run Period 2,            !- Name
    7,                       !- Begin Month
    1,                       !- Begin Day of Month
    ,                        !- Begin Year
    7,                       !- End Month
    7,                       !- End Day of Month
    ,                        !- End Year
    ,                        !- Day of Week for Start Day
    Yes,                     !- Use Weather File Holidays and Special Days
    Yes,                     !- Use Weather File Daylight Saving Period
    No,                      !- Apply Weekend Holiday Rule
    Yes,                     !- Use Weather File Rain Indicators
    Yes;                     !- Use Weather File Snow Indicators

  Material,
    B4 - 3 IN INSULATION,    !- Name
    VeryRough,               !- Roughness
    7.0000000E-02,           !- Thickness {m}
    3.9999999E-02,           !- Conductivity {W/m-K}
    32.03000,                !- Density {kg/m3}
    830.0000,                !- Specific Heat {J/kg-K}
    0.9000000,               !- Thermal Absorptance
    0.5000000,               !- Solar Absorptance
    0.5000000;               !- Visible Absorptance

  Material,
    PVModule(glass),         !- Name
    Smooth,                  !- Roughness
    0.007,                   !- Thickness {m}
    0.78,                    !- Conductivity {W/m-K}
    2700.00,                 !- Density {kg/m3}
    840.0000,                !- Specific Heat {J/kg-K}
    0.8400000,               !- Thermal Absorptance
    0.92,                    !- Solar Absorptance
    0.92;                    !- Visible Absorptance

  Material,
    E6 - 1 / 2 IN GYP SHEATHING BOARD,  !- Name
    Smooth,                  !- Roughness
    9.9999998E-03,           !- Thickness {m}
    0.1600000,               !- Conductivity {W/m-K}
    784.9000,                !- Density {kg/m3}
    830.0000,                !- Specific Heat {J/kg-K}
    0.9000000,               !- Thermal Absorptance
    0.9200000,               !- Solar Absorptance
    0.9200000;               !- Visible Absorptance

  ConstructionProperty:InternalHeatSource,
    PanelSource,             !- Name
    PVSpandrlPanel,          !- Construction Name
    1,                       !- Thermal Source Present After Layer Number
    1,                       !- Temperature Calculation Requested After Layer Number
    1,                       !- Dimensions for the CTF Calculation
    0.1,                     !- Tube Spacing {m}
    0.0;                     !- Two-Dimensional Temperature Calculation Position {dimensionless}

  Construction,
    PVSpandrlPanel,          !- Name
    PVModule(glass),         !- Outside Layer
    PVModule(glass),         !- Layer 2
    B4 - 3 IN INSULATION,    !- Layer 3
    E6 - 1 / 2 IN GYP SHEATHING BOARD;  !- Layer 4

  Material,
    ROOFING - BUILT UP ROOFING - 3 / 8 IN,  !- Name
    VeryRough,               !- Roughness
    9.4999997E-03,           !- Thickness {m}
    0.1600000,               !- Conductivity {W/m-K}
    1121.290,                !- Density {kg/m3}
    1460.000,                !- Specific Heat {J/kg-K}
    0.9000000,               !- Thermal Absorptance
    0.7000000,               !- Solar Absorptance
    0.7000000;               !- Visible Absorptance

  Material,
    INS-Roof-R_15,           !- Name
    MediumRough,             !- Roughness
    0.1295,                  !- Thickness {m}
    0.049,                   !- Conductivity {W/m-K}
    265,                     !- Density {kg/m3}
    836.8,                   !- Specific Heat {J/kg-K}
    0.9,                     !- Thermal Absorptance
    0.7,                     !- Solar Absorptance
    0.7;                     !- Visible Absorptance

  Material,
    MAT-METAL,               !- Name
    MediumSmooth,            !- Roughness
    0.001524,                !- Thickness {m}
    45.006,                  !- Conductivity {W/m-K}
    7680,                    !- Density {kg/m3}
    418.4,                   !- Specific Heat {J/kg-K}
    0.9,                     !- Thermal Absorptance
    0.7,                     !- Solar Absorptance
    0.7;                     !- Visible Absorptance

  Material,
    IN35,                    !- Name
    Rough,                   !- Roughness
    5.0799999E-02,           !- Thickness {m}
    3.5000000E-02,           !- Conductivity {W/m-K}
    29.00000,                !- Density {kg/m3}
    1213.000,                !- Specific Heat {J/kg-K}
    0.9000000,               !- Thermal Absorptance
    0.5000000,               !- Solar Absorptance
    0.5000000;               !- Visible Absorptance

  Material,
    C10 - 8 IN HW CONCRETE,  !- Name
    MediumRough,             !- Roughness
    0.2033016,               !- Thickness {m}
    1.729577,                !- Conductivity {W/m-K}
    2242.585,                !- Density {kg/m3}
    836.8000,                !- Specific Heat {J/kg-K}
    0.9000000,               !- Thermal Absorptance
    0.6500000,               !- Solar Absorptance
    0.6500000;               !- Visible Absorptance

  Material:NoMass,
    R13LAYER,                !- Name
    Rough,                   !- Roughness
    2.290965,                !- Thermal Resistance {m2-K/W}
    0.9000000,               !- Thermal Absorptance
    0.7500000,               !- Solar Absorptance
    0.7500000;               !- Visible Absorptance

  Construction,
    PVRoofPaverUnderlayment, !- Name
    IN35,                    !- Outside Layer
    ROOFING - BUILT UP ROOFING - 3 / 8 IN,  !- Layer 2
    INS-Roof-R_15,           !- Layer 3
    MAT-METAL;               !- Layer 4

  Construction,
    FLOOR SLAB 8 IN,         !- Name
    C10 - 8 IN HW CONCRETE;  !- Outside Layer

  Construction,
    R13WALL,                 !- Name
    R13LAYER;                !- Outside Layer

  GlobalGeometryRules,
    UpperLeftCorner,         !- Starting Vertex Position
    CounterClockWise,        !- Vertex Entry Direction
    World;                   !- Coordinate System

  Shading:Site:Detailed,
    SouthVerticalSurface,    !- Name
    ,                        !- Transmittance Schedule Name
    4,                       !- Number of Vertices
    50.0,0.0,2.0,  !- X,Y,Z ==> Vertex 1 {m}
    50.0,0.00,0.0,  !- X,Y,Z ==> Vertex 2 {m}
    55.0,0.00,0.0,  !- X,Y,Z ==> Vertex 3 {m}
    55.0,0.0,2.0;  !- X,Y,Z ==> Vertex 4 {m}

  Shading:Site:Detailed,
    LatitudeTiltSurface,     !- Name
    ,                        !- Transmittance Schedule Name
    4,                       !- Number of Vertices
    30.0,1.332,1.4914,  !- X,Y,Z ==> Vertex 1 {m}
    30.0,0.00,0.0,  !- X,Y,Z ==> Vertex 2 {m}
    35.0,0.00,0.0,  !- X,Y,Z ==> Vertex 3 {m}
    35.0,1.332,1.4914;  !- X,Y,Z ==> Vertex 4 {m}

  Shading:Site:Detailed,
    FlatSurface,             !- Name
    ,                        !- Transmittance Schedule Name
    4,                       !- Number of Vertices
    40.0,2.0,0.0,  !- X,Y,Z ==> Vertex 1 {m}
    40.0,0.00,0.0,  !- X,Y,Z ==> Vertex 2 {m}
    45.0,0.00,0.0,  !- X,Y,Z ==> Vertex 3 {m}
    45.0,2.0,0.0;  !- X,Y,Z ==> Vertex 4 {m}

  Shading:Site:Detailed,
    FlatSurfaceShadetoEast,  !- Name
    ,                        !- Transmittance Schedule Name
    4,                       !- Number of Vertices
    0.0,25.0,12.0,  !- X,Y,Z ==> Vertex 1 {m}
    0.0,20.00,12.0,  !- X,Y,Z ==> Vertex 2 {m}
    5.0,20.00,12.0,  !- X,Y,Z ==> Vertex 3 {m}
    5.0,25.0,12.0;  !- X,Y,Z ==> Vertex 4 {m}

  Shading:Site:Detailed,
    ShadetoEast,             !- Name
    ,                        !- Transmittance Schedule Name
    4,                       !- Number of Vertices
    5.0,25.0,22.0,  !- X,Y,Z ==> Vertex 1 {m}
    5.0,25.00,12.0,  !- X,Y,Z ==> Vertex 2 {m}
    5.0,20.00,12.0,  !- X,Y,Z ==> Vertex 3 {m}
    5.0,20.0,22.0;  !- X,Y,Z ==> Vertex 4 {m}

  Shading:Site:Detailed,
    FlatSurfaceShadetoWest,  !- Name
    ,                        !- Transmittance Schedule Name
    4,                       !- Number of Vertices
    20.0,25.0,12.0,  !- X,Y,Z ==> Vertex 1 {m}
    20.0,20.00,12.0,  !- X,Y,Z ==> Vertex 2 {m}
    25.0,20.00,12.0,  !- X,Y,Z ==> Vertex 3 {m}
    25.0,25.0,12.0;  !- X,Y,Z ==> Vertex 4 {m}

  Shading:Site:Detailed,
    ShadetoWest,             !- Name
    ,                        !- Transmittance Schedule Name
    4,                       !- Number of Vertices
    20.0,20.0,22.0,  !- X,Y,Z ==> Vertex 1 {m}
    20.0,20.00,12.0,  !- X,Y,Z ==> Vertex 2 {m}
    20.0,25.00,12.0,  !- X,Y,Z ==> Vertex 3 {m}
    20.0,25.0,22.0;  !- X,Y,Z ==> Vertex 4 {m}

  Zone,
    ZONE ONE,                !- Name
    0,                       !- Direction of Relative North {deg}
    0,                       !- X Origin {m}
    0,                       !- Y Origin {m}
    0,                       !- Z Origin {m}
    1,                       !- Type
    1,                       !- Multiplier
    autocalculate,           !- Ceiling Height {m}
    autocalculate;           !- Volume {m3}

  BuildingSurface:Detailed,
    Zn001:Floor001,          !- Name
    floor,                   !- Surface Type
    FLOOR SLAB 8 IN,         !- Construction Name
    ZONE ONE,                !- Zone Name
    ,                        !- Space Name
    Ground,                  !- Outside Boundary Condition
    ,                        !- Outside Boundary Condition Object
    NoSun,                   !- Sun Exposure
    NoWind,                  !- Wind Exposure
    0.00000,                 !- View Factor to Ground
    4,                       !- Number of Vertices
    0.0,0.0,0.0,  !- X,Y,Z ==> Vertex 1 {m}
    0.0,15.0,0.0,  !- X,Y,Z ==> Vertex 2 {m}
    20.0,15.0,0.0,  !- X,Y,Z ==> Vertex 3 {m}
    20.0,0.0,0.0;  !- X,Y,Z ==> Vertex 4 {m}

  BuildingSurface:Detailed,
    Zn001:Wall001a,          !- Name
    Wall,                    !- Surface Type
    PVSpandrlPanel,          !- Construction Name
    ZONE ONE,                !- Zone Name
    ,                        !- Space Name
    Outdoors,                !- Outside Boundary Condition
    ,                        !- Outside Boundary Condition Object
    SunExposed,              !- Sun Exposure
    WindExposed,             !- Wind Exposure
    0.5000000,               !- View Factor to Ground
    4,                       !- Number of Vertices
    0.0,0.0,5.000,  !- X,Y,Z ==> Vertex 1 {m}
    0.0,0.0,0.0,  !- X,Y,Z ==> Vertex 2 {m}
    7.0,0.0,0.0,  !- X,Y,Z ==> Vertex 3 {m}
    7.0,0.0,5.0;  !- X,Y,Z ==> Vertex 4 {m}

  BuildingSurface:Detailed,
    Zn001:Wall001b,          !- Name
    Wall,                    !- Surface Type
    PVSpandrlPanel,          !- Construction Name
    ZONE ONE,                !- Zone Name
    ,                        !- Space Name
    Outdoors,                !- Outside Boundary Condition
    ,                        !- Outside Boundary Condition Object
    SunExposed,              !- Sun Exposure
    WindExposed,             !- Wind Exposure
    0.5000000,               !- View Factor to Ground
    4,                       !- Number of Vertices
    7.0,0.0,5.000,  !- X,Y,Z ==> Vertex 1 {m}
    7.0,0.0,0.0,  !- X,Y,Z ==> Vertex 2 {m}
    14.0,0.0,0.0,  !- X,Y,Z ==> Vertex 3 {m}
    14.0,0.0,5.0;  !- X,Y,Z ==> Vertex 4 {m}

  BuildingSurface:Detailed,
    Zn001:Wall001c,          !- Name
    Wall,                    !- Surface Type
    PVSpandrlPanel,          !- Construction Name
    ZONE ONE,                !- Zone Name
    ,                        !- Space Name
    Outdoors,                !- Outside Boundary Condition
    ,                        !- Outside Boundary Condition Object
    SunExposed,              !- Sun Exposure
    WindExposed,             !- Wind Exposure
    0.5000000,               !- View Factor to Ground
    4,                       !- Number of Vertices
    14.0,0.0,5.000,  !- X,Y,Z ==> Vertex 1 {m}
    14.0,0.0,0.0,  !- X,Y,Z ==> Vertex 2 {m}
    20.0,0.0,0.0,  !- X,Y,Z ==> Vertex 3 {m}
    20.0,0.0,5.0;  !- X,Y,Z ==> Vertex 4 {m}

  BuildingSurface:Detailed,
    Zn001:Wall002,           !- Name
    Wall,                    !- Surface Type
    R13WALL,                 !- Construction Name
    ZONE ONE,                !- Zone Name
    ,                        !- Space Name
    Outdoors,                !- Outside Boundary Condition
    ,                        !- Outside Boundary Condition Object
    SunExposed,              !- Sun Exposure
    WindExposed,             !- Wind Exposure
    0.5000000,               !- View Factor to Ground
    4,                       !- Number of Vertices
    20.0,0.0,5.0,  !- X,Y,Z ==> Vertex 1 {m}
    20.0,0.0,0.0,  !- X,Y,Z ==> Vertex 2 {m}
    20.0,15.0,0.0,  !- X,Y,Z ==> Vertex 3 {m}
    20.0,15.0,5.0;  !- X,Y,Z ==> Vertex 4 {m}

  BuildingSurface:Detailed,
    Zn001:Wall003,           !- Name
    Wall,                    !- Surface Type
    R13WALL,                 !- Construction Name
    ZONE ONE,                !- Zone Name
    ,                        !- Space Name
    Outdoors,                !- Outside Boundary Condition
    ,                        !- Outside Boundary Condition Object
    SunExposed,              !- Sun Exposure
    WindExposed,             !- Wind Exposure
    0.5000000,               !- View Factor to Ground
    4,                       !- Number of Vertices
    20.0,15.0,5.0,  !- X,Y,Z ==> Vertex 1 {m}
    20.0,15.0,0.0,  !- X,Y,Z ==> Vertex 2 {m}
    0.0,15.0,0.0,  !- X,Y,Z ==> Vertex 3 {m}
    0.0,15.0,5.0;  !- X,Y,Z ==> Vertex 4 {m}

  BuildingSurface:Detailed,
    Zn001:Wall004,           !- Name
    Wall,                    !- Surface Type
    R13WALL,                 !- Construction Name
    ZONE ONE,                !- Zone Name
    ,                        !- Space Name
    Outdoors,                !- Outside Boundary Condition
    ,                        !- Outside Boundary Condition Object
    SunExposed,              !- Sun Exposure
    WindExposed,             !- Wind Exposure
    0.5000000,               !- View Factor to Ground
    4,                       !- Number of Vertices
    0.0,15.0,5.0,  !- X,Y,Z ==> Vertex 1 {m}
    0.0,15.0,0.0,  !- X,Y,Z ==> Vertex 2 {m}
    0.0,0.0,0.0,  !- X,Y,Z ==> Vertex 3 {m}
    0.0,0.0,5.0;  !- X,Y,Z ==> Vertex 4 {m}

  BuildingSurface:Detailed,
    Zn001:Roof001,           !- Name
    roof,                    !- Surface Type
    PVRoofPaverUnderlayment, !- Construction Name
    ZONE ONE,                !- Zone Name
    ,                        !- Space Name
    OtherSideConditionsModel,!- Outside Boundary Condition
    PVRoofPaverSystem1,      !- Outside Boundary Condition Object
    SunExposed,              !- Sun Exposure
    WindExposed,             !- Wind Exposure
    0.000000,                !- View Factor to Ground
    4,                       !- Number of Vertices
    0.0,5.0,5.0,  !- X,Y,Z ==> Vertex 1 {m}
    0.0,0.0,5.0,  !- X,Y,Z ==> Vertex 2 {m}
    20.0,0.0,5.0,  !- X,Y,Z ==> Vertex 3 {m}
    20.0,5.0,5.0;  !- X,Y,Z ==> Vertex 4 {m}

  BuildingSurface:Detailed,
    Zn001:Roof002,           !- Name
    roof,                    !- Surface Type
    PVRoofPaverUnderlayment, !- Construction Name
    ZONE ONE,                !- Zone Name
    ,                        !- Space Name
    OtherSideConditionsModel,!- Outside Boundary Condition
    PVRoofPaverSystem2,      !- Outside Boundary Condition Object
    SunExposed,              !- Sun Exposure
    WindExposed,             !- Wind Exposure
    0.000000,                !- View Factor to Ground
    4,                       !- Number of Vertices
    0.0,10.0,5.0,  !- X,Y,Z ==> Vertex 1 {m}
    0.0,5.0,5.0,  !- X,Y,Z ==> Vertex 2 {m}
    20.0,5.0,5.0,  !- X,Y,Z ==> Vertex 3 {m}
    20.0,10.0,5.0;  !- X,Y,Z ==> Vertex 4 {m}

  BuildingSurface:Detailed,
    Zn001:Roof003,           !- Name
    roof,                    !- Surface Type
    PVRoofPaverUnderlayment, !- Construction Name
    ZONE ONE,                !- Zone Name
    ,                        !- Space Name
    OtherSideConditionsModel,!- Outside Boundary Condition
    PVRoofPaverSystem3,      !- Outside Boundary Condition Object
    SunExposed,              !- Sun Exposure
    WindExposed,             !- Wind Exposure
    0.000000,                !- View Factor to Ground
    4,                       !- Number of Vertices
    0.0,15.0,5.0,  !- X,Y,Z ==> Vertex 1 {m}
    0.0,10.0,5.0,  !- X,Y,Z ==> Vertex 2 {m}
    20.0,10.0,5.0,  !- X,Y,Z ==> Vertex 3 {m}
    20.0,15.0,5.0;  !- X,Y,Z ==> Vertex 4 {m}

  SurfaceProperty:OtherSideConditionsModel,
    PVRoofPaverSystem1,      !- Name
    GapConvectionRadiation;  !- Type of Modeling

  SurfaceProperty:ExteriorNaturalVentedCavity,
    PVRoofPaverExtVentCav1,  !- Name
    PVRoofPaverSystem1,      !- Boundary Conditions Model Name
    0.02,                    !- Area Fraction of Openings {dimensionless}
    0.9,                     !- Thermal Emissivity of Exterior Baffle Material {dimensionless}
    0.92,                    !- Solar Absorbtivity of Exterior Baffle {dimensionless}
    0.05,                    !- Height Scale for Buoyancy-Driven Ventilation {m}
    0.05,                    !- Effective Thickness of Cavity Behind Exterior Baffle {m}
    0.97,                    !- Ratio of Actual Surface Area to Projected Surface Area {dimensionless}
    Smooth,                  !- Roughness of Exterior Surface
    0.1,                     !- Effectiveness for Perforations with Respect to Wind {dimensionless}
    0.5,                     !- Discharge Coefficient for Openings with Respect to Buoyancy Driven Flow {dimensionless}
    Zn001:Roof001;           !- Surface 1 Name

  SurfaceProperty:OtherSideConditionsModel,
    PVRoofPaverSystem2,      !- Name
    GapConvectionRadiation;  !- Type of Modeling

  SurfaceProperty:ExteriorNaturalVentedCavity,
    PVRoofPaverExtVentCav2,  !- Name
    PVRoofPaverSystem2,      !- Boundary Conditions Model Name
    0.02,                    !- Area Fraction of Openings {dimensionless}
    0.9,                     !- Thermal Emissivity of Exterior Baffle Material {dimensionless}
    0.92,                    !- Solar Absorbtivity of Exterior Baffle {dimensionless}
    0.05,                    !- Height Scale for Buoyancy-Driven Ventilation {m}
    0.05,                    !- Effective Thickness of Cavity Behind Exterior Baffle {m}
    0.97,                    !- Ratio of Actual Surface Area to Projected Surface Area {dimensionless}
    Smooth,                  !- Roughness of Exterior Surface
    0.1,                     !- Effectiveness for Perforations with Respect to Wind {dimensionless}
    0.5,                     !- Discharge Coefficient for Openings with Respect to Buoyancy Driven Flow {dimensionless}
    Zn001:Roof002;           !- Surface 1 Name

  SurfaceProperty:OtherSideConditionsModel,
    PVRoofPaverSystem3,      !- Name
    GapConvectionRadiation;  !- Type of Modeling

  SurfaceProperty:ExteriorNaturalVentedCavity,
    PVRoofPaverExtVentCav3,  !- Name
    PVRoofPaverSystem3,      !- Boundary Conditions Model Name
    0.02,                    !- Area Fraction of Openings {dimensionless}
    0.9,                     !- Thermal Emissivity of Exterior Baffle Material {dimensionless}
    0.92,                    !- Solar Absorbtivity of Exterior Baffle {dimensionless}
    0.05,                    !- Height Scale for Buoyancy-Driven Ventilation {m}
    0.05,                    !- Effective Thickness of Cavity Behind Exterior Baffle {m}
    0.97,                    !- Ratio of Actual Surface Area to Projected Surface Area {dimensionless}
    Smooth,                  !- Roughness of Exterior Surface
    0.1,                     !- Effectiveness for Perforations with Respect to Wind {dimensionless}
    0.5,                     !- Discharge Coefficient for Openings with Respect to Buoyancy Driven Flow {dimensionless}
    Zn001:Roof003;           !- Surface 1 Name

  ZoneControl:Thermostat,
    Zone 1 Thermostat,       !- Name
    ZONE ONE,                !- Zone or ZoneList Name
    Zone Control Type Sched, !- Control Type Schedule Name
    ThermostatSetpoint:SingleHeating,  !- Control 1 Object Type
    Heating Setpoint with SB,!- Control 1 Name
    ThermostatSetpoint:SingleCooling,  !- Control 2 Object Type
    Cooling Setpoint with SB;!- Control 2 Name

  ThermostatSetpoint:SingleHeating,
    Heating Setpoint with SB,!- Name
    Heating Setpoints;       !- Setpoint Temperature Schedule Name

  ThermostatSetpoint:SingleCooling,
    Cooling Setpoint with SB,!- Name
    Cooling Setpoints;       !- Setpoint Temperature Schedule Name

  ZoneHVAC:EquipmentConnections,
    ZONE ONE,                !- Zone Name
    Zone1Equipment,          !- Zone Conditioning Equipment List Name
    Zone1Inlets,             !- Zone Air Inlet Node or NodeList Name
    ,                        !- Zone Air Exhaust Node or NodeList Name
    Zone 1 NODE,             !- Zone Air Node Name
    Zone 1 Outlet;           !- Zone Return Air Node or NodeList Name

  ZoneHVAC:EquipmentList,
    Zone1Equipment,          !- Name
    SequentialLoad,          !- Load Distribution Scheme
    ZoneHVAC:IdealLoadsAirSystem,  !- Zone Equipment 1 Object Type
    Zone1Air,                !- Zone Equipment 1 Name
    1,                       !- Zone Equipment 1 Cooling Sequence
    1,                       !- Zone Equipment 1 Heating or No-Load Sequence
    ,                        !- Zone Equipment 1 Sequential Cooling Fraction Schedule Name
    ;                        !- Zone Equipment 1 Sequential Heating Fraction Schedule Name

  ZoneHVAC:IdealLoadsAirSystem,
    Zone1Air,                !- Name
    ,                        !- Availability Schedule Name
    Zone 1 inlet,            !- Zone Supply Air Node Name
    ,                        !- Zone Exhaust Air Node Name
    ,                        !- System Inlet Air Node Name
    50,                      !- Maximum Heating Supply Air Temperature {C}
    13,                      !- Minimum Cooling Supply Air Temperature {C}
    0.009,                   !- Maximum Heating Supply Air Humidity Ratio {kgWater/kgDryAir}
    0.009,                   !- Minimum Cooling Supply Air Humidity Ratio {kgWater/kgDryAir}
    NoLimit,                 !- Heating Limit
    autosize,                !- Maximum Heating Air Flow Rate {m3/s}
    ,                        !- Maximum Sensible Heating Capacity {W}
    NoLimit,                 !- Cooling Limit
    autosize,                !- Maximum Cooling Air Flow Rate {m3/s}
    ,                        !- Maximum Total Cooling Capacity {W}
    ,                        !- Heating Availability Schedule Name
    ,                        !- Cooling Availability Schedule Name
    ConstantSupplyHumidityRatio,  !- Dehumidification Control Type
    ,                        !- Cooling Sensible Heat Ratio {dimensionless}
    ConstantSupplyHumidityRatio,  !- Humidification Control Type
    ,                        !- Design Specification Outdoor Air Object Name
    ,                        !- Outdoor Air Inlet Node Name