!-Generator IDFEditor 1.36a
!-Option OriginalOrderTop UseSpecialFormat
!-NOTE: All comments with '!-' are ignored by the IDFEditor and are generated automatically.
!-      Use '!' comments if they need to be retained when using the IDFEditor.
!
! GeneratorswithWindTurbine.idf
!
! Basic file description:  Simple test for wind turbine model. Ideal load air system controls a zone with no windows.
!
! Highlights:              Two high capacity Horizontal axis wind turbines and a vertical axis wind turbine.
!                          An analysis of local wind speed and air density at the particular height of the system.
!                          Estimation of the electric power production from both types of wind turbines.
!
! Simulation Location/Run: CHICAGO_IL_USA TMY3, 2 run periods,
!                          Run Control executes the run periods using the weather file
!
! Location:                Chicago, IL
!
! Design Days:             CHICAGO_IL_USA Annual Heating 99% Design Conditions DB, MaxDB= -16.6°C
!                          CHICAGO_IL_USA Annual Cooling 1% Design Conditions, MaxDB=  31.6°C MCWB=  23.0°C
!
! Run Period (Weather File): Winter 1/1 - 1/31, Summer 7/1 - 7/31, CHICAGO_IL_USA TMY3
!
! Run Control:             No zone or system sizing, no design day run, 2 weather file runs
!
! Building: Fictional 1 zone building with resistive walls.
!           The building is oriented due north.
!
! Floor Area:        232.25 m2
! Number of Stories: 1
!
! Zone Description Details:
!
!       (0,15.24,0)                 (15.24,15.24,0)
!              _____________________________
!             |                             |
!             |                             |
!             |                             |
!             |                             |
!             |                             |
!             |                             |
!             |                             |
!             |                             |
!             |                             |
!             |                             |
!             |                             |
!             |                             |
!             |                             |
!             |                             |
!             |                             |
!             |_____________________________|
!
!          (0,0,0)                      (15.24,0,0)
!
! Zone Description Details:
!   Internal gains description:     Interior and exterior lights and equipment at reasonable levels.
!   Interzone Surfaces:             None
!   Internal Mass:                  None
!   People:                         None
!   Light:                          Design level of 60 watts for interior lights.
!   Electric Equipment:             Design level of 1056 watts.
!   Windows:                        None
!   Detached Shading:               None
!   Daylight:                       None
!   Natural Ventilation:            None
!   Compact Schedules:              Yes
!   Solar Distribution:             FullExterior, Aniso, Simple Interior and Exterior Convection
!
! HVAC:                             None
!   Zonal Equipment:                Ideal load air system
!   Central Air Handling Equipment: None
!   System Equipment Autosize:      None
!   Purchased Cooling:              None
!   Purchased Heating:              None
!   Coils:                          None
!   Pumps:                          None
!   Boilers:                        None
!   Chillers:                       None
!
! Results:
!   Standard Reports:               None
!   Timestep or Hourly Variables:   Hourly
!   Time bins Report:               None
!   HTML Report:                    None
!   Environmental Emissions:        None
!   Utility Tariffs:                None

  Version,24.1;

  Timestep,4;

  Building,
    Simple One Zone (Wireframe DXF),  !- Name
    0,                       !- North Axis {deg}
    Suburbs,                 !- Terrain
    0.04,                    !- Loads Convergence Tolerance Value {W}
    0.004,                   !- Temperature Convergence Tolerance Value {deltaC}
    MinimalShadowing,        !- Solar Distribution
    30,                      !- Maximum Number of Warmup Days
    6;                       !- Minimum Number of Warmup Days

  HeatBalanceAlgorithm,ConductionTransferFunction;

  SurfaceConvectionAlgorithm:Inside,TARP;

  SurfaceConvectionAlgorithm:Outside,SimpleCombined;

  SimulationControl,
    No,                      !- Do Zone Sizing Calculation
    No,                      !- Do System Sizing Calculation
    No,                      !- Do Plant Sizing Calculation
    No,                      !- Run Simulation for Sizing Periods
    Yes,                     !- Run Simulation for Weather File Run Periods
    No,                      !- Do HVAC Sizing Simulation for Sizing Periods
    1;                       !- Maximum Number of HVAC Sizing Simulation Passes

  RunPeriod,
    Run Period 1,            !- Name
    1,                       !- Begin Month
    1,                       !- Begin Day of Month
    ,                        !- Begin Year
    1,                       !- End Month
    31,                      !- End Day of Month
    ,                        !- End Year
    Tuesday,                 !- Day of Week for Start Day
    Yes,                     !- Use Weather File Holidays and Special Days
    Yes,                     !- Use Weather File Daylight Saving Period
    No,                      !- Apply Weekend Holiday Rule
    Yes,                     !- Use Weather File Rain Indicators
    Yes;                     !- Use Weather File Snow Indicators

  RunPeriod,
    Run Period 2,            !- Name
    7,                       !- Begin Month
    1,                       !- Begin Day of Month
    ,                        !- Begin Year
    7,                       !- End Month
    31,                      !- End Day of Month
    ,                        !- End Year
    Tuesday,                 !- Day of Week for Start Day
    Yes,                     !- Use Weather File Holidays and Special Days
    Yes,                     !- Use Weather File Daylight Saving Period
    No,                      !- Apply Weekend Holiday Rule
    Yes,                     !- Use Weather File Rain Indicators
    Yes;                     !- Use Weather File Snow Indicators

  Site:Location,
    Chicago Ohare Intl Ap IL USA WMO=725300,  !- Name
    41.99,                   !- Latitude {deg}
    -87.91,                  !- Longitude {deg}
    -6.00,                   !- Time Zone {hr}
    205.00;                  !- Elevation {m}

 ! Chicago Ohare Intl Ap IL USA Annual Heating 99%, MaxDB=-16.6°C

  SizingPeriod:DesignDay,
    Chicago Ohare Intl Ap Ann Htg 99% Condns DB,  !- Name
    1,                       !- Month
    21,                      !- Day of Month
    WinterDesignDay,         !- Day Type
    -16.6,                   !- Maximum Dry-Bulb Temperature {C}
    0.0,                     !- Daily Dry-Bulb Temperature Range {deltaC}
    ,                        !- Dry-Bulb Temperature Range Modifier Type
    ,                        !- Dry-Bulb Temperature Range Modifier Day Schedule Name
    Wetbulb,                 !- Humidity Condition Type
    -16.6,                   !- Wetbulb or DewPoint at Maximum Dry-Bulb {C}
    ,                        !- Humidity Condition Day Schedule Name
    ,                        !- Humidity Ratio at Maximum Dry-Bulb {kgWater/kgDryAir}
    ,                        !- Enthalpy at Maximum Dry-Bulb {J/kg}
    ,                        !- Daily Wet-Bulb Temperature Range {deltaC}
    98886.,                  !- Barometric Pressure {Pa}
    4.9,                     !- Wind Speed {m/s}
    270,                     !- Wind Direction {deg}
    No,                      !- Rain Indicator
    No,                      !- Snow Indicator
    No,                      !- Daylight Saving Time Indicator
    ASHRAEClearSky,          !- Solar Model Indicator
    ,                        !- Beam Solar Day Schedule Name
    ,                        !- Diffuse Solar Day Schedule Name
    ,                        !- ASHRAE Clear Sky Optical Depth for Beam Irradiance (taub) {dimensionless}
    ,                        !- ASHRAE Clear Sky Optical Depth for Diffuse Irradiance (taud) {dimensionless}
    0.00;                    !- Sky Clearness

 ! Chicago Ohare Intl Ap IL USA Annual Cooling (DB=>MWB) 1%, MaxDB=31.6°C MWB=23°C

  SizingPeriod:DesignDay,
    Chicago Ohare Intl Ap Ann Clg 1% Condns DB=>MWB,  !- Name
    7,                       !- Month
    21,                      !- Day of Month
    SummerDesignDay,         !- Day Type
    31.6,                    !- Maximum Dry-Bulb Temperature {C}
    10.5,                    !- Daily Dry-Bulb Temperature Range {deltaC}
    ,                        !- Dry-Bulb Temperature Range Modifier Type
    ,                        !- Dry-Bulb Temperature Range Modifier Day Schedule Name
    Wetbulb,                 !- Humidity Condition Type
    23,                      !- Wetbulb or DewPoint at Maximum Dry-Bulb {C}
    ,                        !- Humidity Condition Day Schedule Name
    ,                        !- Humidity Ratio at Maximum Dry-Bulb {kgWater/kgDryAir}
    ,                        !- Enthalpy at Maximum Dry-Bulb {J/kg}
    ,                        !- Daily Wet-Bulb Temperature Range {deltaC}
    98886.,                  !- Barometric Pressure {Pa}
    5.2,                     !- Wind Speed {m/s}
    230,                     !- Wind Direction {deg}
    No,                      !- Rain Indicator
    No,                      !- Snow Indicator
    No,                      !- Daylight Saving Time Indicator
    ASHRAEClearSky,          !- Solar Model Indicator
    ,                        !- Beam Solar Day Schedule Name
    ,                        !- Diffuse Solar Day Schedule Name
    ,                        !- ASHRAE Clear Sky Optical Depth for Beam Irradiance (taub) {dimensionless}
    ,                        !- ASHRAE Clear Sky Optical Depth for Diffuse Irradiance (taud) {dimensionless}
    1.00;                    !- Sky Clearness

  Site:GroundTemperature:BuildingSurface,19,19,19,20,22,23,24,23,22,21,20,19;

  Material:NoMass,
    R13LAYER,                !- Name
    Rough,                   !- Roughness
    2.290965,                !- Thermal Resistance {m2-K/W}
    0.9000000,               !- Thermal Absorptance
    0.7500000,               !- Solar Absorptance
    0.7500000;               !- Visible Absorptance

  Material:NoMass,
    R31LAYER,                !- Name
    Rough,                   !- Roughness
    5.456,                   !- Thermal Resistance {m2-K/W}
    0.9000000,               !- Thermal Absorptance
    0.7500000,               !- Solar Absorptance
    0.7500000;               !- Visible Absorptance

  Material,
    C5 - 4 IN HW CONCRETE,   !- Name
    MediumRough,             !- Roughness
    0.1014984,               !- Thickness {m}
    1.729577,                !- Conductivity {W/m-K}
    2242.585,                !- Density {kg/m3}
    836.8000,                !- Specific Heat {J/kg-K}
    0.9000000,               !- Thermal Absorptance
    0.6500000,               !- Solar Absorptance
    0.6500000;               !- Visible Absorptance

  Construction,
    R13WALL,                 !- Name
    R13LAYER;                !- Outside Layer

  Construction,
    FLOOR,                   !- Name
    C5 - 4 IN HW CONCRETE;   !- Outside Layer

  Construction,
    ROOF31,                  !- Name
    R31LAYER;                !- Outside Layer

  Zone,
    ZONE ONE,                !- Name
    0,                       !- Direction of Relative North {deg}
    0,                       !- X Origin {m}
    0,                       !- Y Origin {m}
    0,                       !- Z Origin {m}
    1,                       !- Type
    1,                       !- Multiplier
    autocalculate,           !- Ceiling Height {m}
    autocalculate;           !- Volume {m3}

  ScheduleTypeLimits,
    Fraction,                !- Name
    0.0,                     !- Lower Limit Value
    1.0,                     !- Upper Limit Value
    CONTINUOUS;              !- Numeric Type

  GlobalGeometryRules,
    UpperLeftCorner,         !- Starting Vertex Position
    CounterClockWise,        !- Vertex Entry Direction
    World;                   !- Coordinate System

  BuildingSurface:Detailed,
    Zn001:Wall001,           !- Name
    Wall,                    !- Surface Type
    R13WALL,                 !- Construction Name
    ZONE ONE,                !- Zone Name
    ,                        !- Space Name
    Outdoors,                !- Outside Boundary Condition
    ,                        !- Outside Boundary Condition Object
    SunExposed,              !- Sun Exposure
    WindExposed,             !- Wind Exposure
    0.5000000,               !- View Factor to Ground
    4,                       !- Number of Vertices
    0,0,4.572000,  !- X,Y,Z ==> Vertex 1 {m}
    0,0,0,  !- X,Y,Z ==> Vertex 2 {m}
    15.24000,0,0,  !- X,Y,Z ==> Vertex 3 {m}
    15.24000,0,4.572000;  !- X,Y,Z ==> Vertex 4 {m}

  BuildingSurface:Detailed,
    Zn001:Wall002,           !- Name
    Wall,                    !- Surface Type
    R13WALL,                 !- Construction Name
    ZONE ONE,                !- Zone Name
    ,                        !- Space Name
    Outdoors,                !- Outside Boundary Condition
    ,                        !- Outside Boundary Condition Object
    SunExposed,              !- Sun Exposure
    WindExposed,             !- Wind Exposure
    0.5000000,               !- View Factor to Ground
    4,                       !- Number of Vertices
    15.24000,0,4.572000,  !- X,Y,Z ==> Vertex 1 {m}
    15.24000,0,0,  !- X,Y,Z ==> Vertex 2 {m}
    15.24000,15.24000,0,  !- X,Y,Z ==> Vertex 3 {m}
    15.24000,15.24000,4.572000;  !- X,Y,Z ==> Vertex 4 {m}

  BuildingSurface:Detailed,
    Zn001:Wall003,           !- Name
    Wall,                    !- Surface Type
    R13WALL,                 !- Construction Name
    ZONE ONE,                !- Zone Name
    ,                        !- Space Name
    Outdoors,                !- Outside Boundary Condition
    ,                        !- Outside Boundary Condition Object
    SunExposed,              !- Sun Exposure
    WindExposed,             !- Wind Exposure
    0.5000000,               !- View Factor to Ground
    4,                       !- Number of Vertices
    15.24000,15.24000,4.572000,  !- X,Y,Z ==> Vertex 1 {m}
    15.24000,15.24000,0,  !- X,Y,Z ==> Vertex 2 {m}
    0,15.24000,0,  !- X,Y,Z ==> Vertex 3 {m}
    0,15.24000,4.572000;  !- X,Y,Z ==> Vertex 4 {m}

  BuildingSurface:Detailed,
    Zn001:Wall004,           !- Name
    Wall,                    !- Surface Type
    R13WALL,                 !- Construction Name
    ZONE ONE,                !- Zone Name
    ,                        !- Space Name
    Outdoors,                !- Outside Boundary Condition
    ,                        !- Outside Boundary Condition Object
    SunExposed,              !- Sun Exposure
    WindExposed,             !- Wind Exposure
    0.5000000,               !- View Factor to Ground
    4,                       !- Number of Vertices
    0,15.24000,4.572000,  !- X,Y,Z ==> Vertex 1 {m}
    0,15.24000,0,  !- X,Y,Z ==> Vertex 2 {m}
    0,0,0,  !- X,Y,Z ==> Vertex 3 {m}
    0,0,4.572000;  !- X,Y,Z ==> Vertex 4 {m}

  BuildingSurface:Detailed,
    Zn001:Flr001,            !- Name
    Floor,                   !- Surface Type
    FLOOR,                   !- Construction Name
    ZONE ONE,                !- Zone Name
    ,                        !- Space Name
    Adiabatic,               !- Outside Boundary Condition
    ,                        !- Outside Boundary Condition Object
    NoSun,                   !- Sun Exposure
    NoWind,                  !- Wind Exposure
    1.000000,                !- View Factor to Ground
    4,                       !- Number of Vertices
    15.24000,0.000000,0.0,  !- X,Y,Z ==> Vertex 1 {m}
    0.000000,0.000000,0.0,  !- X,Y,Z ==> Vertex 2 {m}
    0.000000,15.24000,0.0,  !- X,Y,Z ==> Vertex 3 {m}
    15.24000,15.24000,0.0;  !- X,Y,Z ==> Vertex 4 {m}

  BuildingSurface:Detailed,
    Zn001:Roof001,           !- Name
    Roof,                    !- Surface Type
    ROOF31,                  !- Construction Name
    ZONE ONE,                !- Zone Name
    ,                        !- Space Name
    Outdoors,                !- Outside Boundary Condition
    ,                        !- Outside Boundary Condition Object
    SunExposed,              !- Sun Exposure
    WindExposed,             !- Wind Exposure
    0,                       !- View Factor to Ground
    4,                       !- Number of Vertices
    0.000000,15.24000,4.572,  !- X,Y,Z ==> Vertex 1 {m}
    0.000000,0.000000,4.572,  !- X,Y,Z ==> Vertex 2 {m}
    15.24000,0.000000,4.572,  !- X,Y,Z ==> Vertex 3 {m}
    15.24000,15.24000,4.572;  !- X,Y,Z ==> Vertex 4 {m}

  ScheduleTypeLimits,
    Control Type,            !- Name
    0,                       !- Lower Limit Value
    4,                       !- Upper Limit Value
    DISCRETE;                !- Numeric Type

  ScheduleTypeLimits,
    Temperature,             !- Name
    -60,                     !- Lower Limit Value
    200,                     !- Upper Limit Value
    CONTINUOUS;              !- Numeric Type

  Schedule:Compact,
    Always On,               !- Name
    Fraction,                !- Schedule Type Limits Name
    Through: 12/31,          !- Field 1
    For: AllDays,            !- Field 2
    Until: 24:00,1.0;        !- Field 3

  Schedule:Compact,
    Zone Control Type Sched, !- Name
    Control Type,            !- Schedule Type Limits Name
    Through: 3/31,           !- Field 1
    For: AllDays,            !- Field 2
    Until: 24:00,1,          !- Field 3
    Through: 9/30,           !- Field 5
    For: AllDays,            !- Field 6
    Until: 24:00,2,          !- Field 7
    Through: 12/31,          !- Field 9
    For: AllDays,            !- Field 10
    Until: 24:00,1;          !- Field 11

  Schedule:Compact,
    Heating Setpoints,       !- Name
    Temperature,             !- Schedule Type Limits Name
    Through: 12/31,          !- Field 1
    For: AllDays,            !- Field 2
    Until:  7:00,15.0,       !- Field 3
    Until: 17:00,20.0,       !- Field 5
    Until: 24:00,15.0;       !- Field 7

  Schedule:Compact,
    Cooling Setpoints,       !- Name
    Temperature,             !- Schedule Type Limits Name
    Through: 12/31,          !- Field 1
    For: AllDays,            !- Field 2
    Until:  7:00,30.0,       !- Field 3
    Until: 20:00,23.0,       !- Field 5
    Until: 24:00,30.0;       !- Field 7

  Lights,
    Light,                   !- Name
    ZONE ONE,                !- Zone or ZoneList or Space or SpaceList Name
    Always On,               !- Schedule Name
    LightingLevel,           !- Design Level Calculation Method
    60,                      !- Lighting Level {W}
    ,                        !- Watts per Zone Floor Area {W/m2}
    ,                        !- Watts per Person {W/person}
    0,                       !- Return Air Fraction
    0,                       !- Fraction Radiant
    0,                       !- Fraction Visible
    1,                       !- Fraction Replaceable
    General,                 !- End-Use Subcategory
    No;                      !- Return Air Fraction Calculated from Plenum Temperature

  ElectricEquipment,
    Equipment,               !- Name
    ZONE ONE,                !- Zone or ZoneList or Space or SpaceList Name
    Always On,               !- Schedule Name
    EquipmentLevel,          !- Design Level Calculation Method
    1056,                    !- Design Level {W}
    ,                        !- Watts per Zone Floor Area {W/m2}
    ,                        !- Watts per Person {W/person}
    ,                        !- Fraction Latent
    0.3,                     !- Fraction Radiant
    ,                        !- Fraction Lost
    General;                 !- End-Use Subcategory

  NodeList,
    Zone1Inlets,             !- Name
    Zone 1 inlet;            !- Node 1 Name

  ZoneControl:Thermostat,
    Zone 1 Thermostat,       !- Name
    ZONE ONE,                !- Zone or ZoneList Name
    Zone Control Type Sched, !- Control Type Schedule Name
    ThermostatSetpoint:SingleHeating,  !- Control 1 Object Type
    Heating Setpoint with SB,!- Control 1 Name
    ThermostatSetpoint:SingleCooling,  !- Control 2 Object Type
    Cooling Setpoint with SB;!- Control 2 Name

  ThermostatSetpoint:SingleHeating,
    Heating Setpoint with SB,!- Name
    Heating Setpoints;       !- Setpoint Temperature Schedule Name

  ThermostatSetpoint:SingleCooling,
    Cooling Setpoint with SB,!- Name
    Cooling Setpoints;       !- Setpoint Temperature Schedule Name

  ZoneHVAC:IdealLoadsAirSystem,
    Zone1Air,                !- Name
    ,                        !- Availability Schedule Name
    Zone 1 inlet,            !- Zone Supply Air Node Name
    ,                        !- Zone Exhaust Air Node Name
    ,                        !- System Inlet Air Node Name
    50,                      !- Maximum Heating Supply Air Temperature {C}
    13,                      !- Minimum Cooling Supply Air Temperature {C}
    0.009,                   !- Maximum Heating Supply Air Humidity Ratio {kgWater/kgDryAir}
    0.009,                   !- Minimum Cooling Supply Air Humidity Ratio {kgWater/kgDryAir}
    NoLimit,                 !- Heating Limit
    autosize,                !- Maximum Heating Air Flow Rate {m3/s}
    ,                        !- Maximum Sensible Heating Capacity {W}
    NoLimit,                 !- Cooling Limit
    autosize,                !- Maximum Cooling Air Flow Rate {m3/s}
    ,                        !- Maximum Total Cooling Capacity {W}
    ,                        !- Heating Availability Schedule Name
    ,                        !- Cooling Availability Schedule Name
    ConstantSupplyHumidityRatio,  !- Dehumidification Control Type
    ,                        !- Cooling Sensible Heat Ratio {dimensionless}
    ConstantSupplyHumidityRatio,  !- Humidification Control Type
    ,                        !- Design Specification Outdoor Air Object Name
    ,                        !- Outdoor Air Inlet Node Name
    ,                        !- Demand Controlled Ventilation Type
    ,                        !- Outdoor Air Economizer Type
    ,                        !- Heat Recovery Type
    ,                        !- Sensible Heat Recovery Effectiveness {dimensionless}
    ;                        !- Latent Heat Recovery Effectiveness {dimensionless}

  ZoneHVAC:EquipmentList,
    Zone1Equipment,          !- Name
    SequentialLoad,          !- Load Distribution Scheme
    ZoneHVAC:IdealLoadsAirSystem,  !- Zone Equipment 1 Object Type
    Zone1Air,                !- Zone Equipment 1 Name
    1,                       !- Zone Equipment 1 Cooling Sequence
    1,                       !- Zone Equipment 1 Heating or No-Load Sequence
    ,                        !- Zone Equipment 1 Sequential Cooling Fraction Schedule Name
    ;                        !- Zone Equipment 1 Sequential Heating Fraction Schedule Name

  ZoneHVAC:EquipmentConnections,
    ZONE ONE,                !- Zone Name
    Zone1Equipment,          !- Zone Conditioning Equipment List Name
    Zone1Inlets,             !- Zone Air Inlet Node or NodeList Name
    ,                        !- Zone Air Exhaust Node or NodeList Name
    Zone 1 NODE,             !- Zone Air Node Name
    Zone 1 Outlet;           !- Zone Return Air Node or NodeList Name

  Generator:WindTurbine,
    WT1,                     !- Name
    Always On,               !- Availability Schedule Name
    HorizontalAxisWindTurbine,  !- Rotor Type
    FixedSpeedVariablePitch, !- Power Control
    41,                      !- Rated Rotor Speed {rev/min}
    19.2,                    !- Rotor Diameter {m}
    30.5,                    !- Overall Height {m}
    3,                       !- Number of Blades
    55000,                   !- Rated Power {W}
    11,                      !- Rated Wind Speed {m/s}
    3.5,                     !- Cut In Wind Speed {m/s}
    25,                      !- Cut Out Wind Speed {m/s}
    0.835,                   !- Fraction system Efficiency
    8,                       !- Maximum Tip Speed Ratio
    0.5,                     !- Maximum Power Coefficient
    6.4,                     !- Annual Local Average Wind Speed {m/s}
    50,                      !- Height for Local Average Wind Speed {m}
    ,                        !- Blade Chord Area {m2}
    ,                        !- Blade Drag Coefficient
    ,                        !- Blade Lift Coefficient
    0.5176,                  !- Power Coefficient C1
    116,                     !- Power Coefficient C2
    0.4,                     !- Power Coefficient C3
    0,                       !- Power Coefficient C4
    5,                       !- Power Coefficient C5
    21;                      !- Power Coefficient C6

  Generator:WindTurbine,
    WT2,                     !- Name
    Always On,               !- Availability Schedule Name
    HorizontalAxisWindTurbine,  !- Rotor Type
    FixedSpeedFixedPitch,    !- Power Control
    59,                      !- Rated Rotor Speed {rev/min}
    21,                      !- Rotor Diameter {m}
    37,                      !- Overall Height {m}
    3,                       !- Number of Blades
    100000,                  !- Rated Power {W}
    14.5,                    !- Rated Wind Speed {m/s}
    3.5,                     !- Cut In Wind Speed {m/s}
    25,                      !- Cut Out Wind Speed {m/s}
    0.835,                   !- Fraction system Efficiency
    7,                       !- Maximum Tip Speed Ratio
    0.23,                    !- Maximum Power Coefficient
    6.4,                     !- Annual Local Average Wind Speed {m/s}
    50,                      !- Height for Local Average Wind Speed {m}
    ,                        !- Blade Chord Area {m2}
    ,                        !- Blade Drag Coefficient
    ,                        !- Blade Lift Coefficient
    ,                        !- Power Coefficient C1
    ,                        !- Power Coefficient C2
    ,                        !- Power Coefficient C3
    ,                        !- Power Coefficient C4
    ,                        !- Power Coefficient C5
    ;                        !- Power Coefficient C6

  Generator:WindTurbine,
    WT3,                     !- Name
    Always On,               !- Availability Schedule Name
    VerticalAxisWindTurbine, !- Rotor Type
    VariableSpeedFixedPitch, !- Power Control
    130,                     !- Rated Rotor Speed {rev/min}
    5.2,                     !- Rotor Diameter {m}
    11,                      !- Overall Height {m}
    3,                       !- Number of Blades
    10000,                   !- Rated Power {W}
    11,                      !- Rated Wind Speed {m/s}
    3,                       !- Cut In Wind Speed {m/s}
    25,                      !- Cut Out Wind Speed {m/s}
    0.75,                    !- Fraction system Efficiency
    5,                       !- Maximum Tip Speed Ratio
    ,                        !- Maximum Power Coefficient
    6.4,                     !- Annual Local Average Wind Speed {m/s}
    50,                      !- Height for Local Average Wind Speed {m}
    2.08,                    !- Blade Chord Area {m2}
    0.9,                     !- Blade Drag Coefficient
    0.05,                    !- Blade Lift Coefficient
    ,                        !- Power Coefficient C1
    ,                        !- Power Coefficient C2
    ,                        !- Power Coefficient C3
    ,                        !- Power Coefficient C4
    ,                        !- Power Coefficient C5
    ;                        !- Power Coefficient C6

  ElectricLoadCenter:Generators,
    WT List,                 !- Name
    WT1,                     !- Generator 1 Name
    Generator:WindTurbine,   !- Generator 1 Object Type
    55000,                   !- Generator 1 Rated Electric Power Output {W}
    Always On,               !- Generator 1 Availability Schedule Name
    ,                        !- Generator 1 Rated Thermal to Electrical Power Ratio
    WT2,                     !- Generator 2 Name
    Generator:WindTurbine,   !- Generator 2 Object Type
    100000,                  !- Generator 2 Rated Electric Power Output {W}
    Always On,               !- Generator 2 Availability Schedule Name
    ,                        !- Generator 2 Rated Thermal to Electrical Power Ratio
    WT3,                     !- Generator 3 Name
    Generator:WindTurbine,   !- Generator 3 Object Type
    10000,                   !- Generator 3 Rated Electric Power Output {W}
    Always On;               !- Generator 3 Availability Schedule Name

  ElectricLoadCenter:Distribution,
    WT List,                 !- Name
    WT List,                 !- Generator List Name
    Baseload,                !- Generator Operation Scheme Type
    ,                        !- Generator Demand Limit Scheme Purchased Electric Demand Limit {W}
    Always On;               !- Generator Track Schedule Name Scheme Schedule Name

  Output:Variable,*,Generator Produced AC Electricity Energy,Hourly;

  Output:Variable,*,Generator Turbine Local Wind Speed,Hourly;

  Output:Variable,*,Generator Turbine Local Air Density,Hourly;

  Output:Variable,*,Generator Turbine Tip Speed Ratio,Hourly;

  Output:Variable,*,Generator Turbine Power Coefficient,Hourly;

  Output:Variable,*,Generator Turbine Chordal Component Velocity,Hourly;

  Output:Variable,*,Generator Turbine Normal Component Velocity,Hourly;

  Output:Variable,*,Generator Turbine Relative Flow Velocity,Hourly;
