!-Generator IDFEditor 1.49
!-Option SortedOrder
!-NOTE: All comments with '!-' are ignored by the IDFEditor and are generated automatically.
!-      Use '!' comments if they need to be retained when using the IDFEditor.
!-   ===========  ALL OBJECTS IN CLASS: VERSION ===========
! GSHP-GLHE-CalcGFunctions.idf
! Basic File Description:
! This input file exemplifies the use of the Water to water ground source heat pump model.
! Highlights: Simulate a heat transfer interaction with the slab
! Simulation Location/Run:
! Location: Chicago, IL
! Design Days SummerDesignDay and WinterDesignDay
! Run Period: Annual simulation
!
! Building: Idealized approximation of simple residential building
! Floor Area: 100 m2
! Number of Stories: 1
!
! Zone Description Details:
! Internal gains description: None, disabled as the feature of this input file
! is the ground coupled slab, not zone simulation.
! Interzone Surfaces: None
! Internal Mass: None
! People: None
! Lights: None
! Windows: None
! Detached Shading: None
! Daylight: None
! Natural Ventilation: None
! Solar Distribution: None
!
! HVAC: ZoneHVAC:WaterToAirHeatPump
! Purchased Air: No
! Central Air Handling Equipment: No
! System Equipment Autosize: Yes
! Purchased Cooling: No
! Purchased Heating: No
! Boilers: No
! Chillers: No
! Towers: No
!***********************************************************
!****** SIMULATION CONTROLS ********************************
!***********************************************************

  Version,24.1;

!-   ===========  ALL OBJECTS IN CLASS: SIMULATIONCONTROL ===========

  SimulationControl,
    Yes,                     !- Do Zone Sizing Calculation
    Yes,                     !- Do System Sizing Calculation
    Yes,                     !- Do Plant Sizing Calculation
    Yes,                     !- Run Simulation for Sizing Periods
    Yes,                     !- Run Simulation for Weather File Run Periods
    No,                      !- Do HVAC Sizing Simulation for Sizing Periods
    1;                       !- Maximum Number of HVAC Sizing Simulation Passes

!-   ===========  ALL OBJECTS IN CLASS: BUILDING ===========

  Building,
    House,                   !- Name
    0.0,                     !- North Axis {deg}
    Suburbs,                 !- Terrain
    0.05,                    !- Loads Convergence Tolerance Value {W}
    0.05,                    !- Temperature Convergence Tolerance Value {deltaC}
    FullInteriorAndExterior, !- Solar Distribution
    35,                      !- Maximum Number of Warmup Days
    6;                       !- Minimum Number of Warmup Days

!-   ===========  ALL OBJECTS IN CLASS: TIMESTEP ===========

  Timestep,4;

!-   ===========  ALL OBJECTS IN CLASS: SITE:LOCATION ===========

  Site:Location,
    Ohare Intl Ap IL USA TMY3 WMO#=725300,  !- Name
    41.98,                   !- Latitude {deg}
    -87.92,                  !- Longitude {deg}
    -6,                      !- Time Zone {hr}
    201.0;                   !- Elevation {m}

!-   ===========  ALL OBJECTS IN CLASS: SIZINGPERIOD:DESIGNDAY ===========

  SizingPeriod:DesignDay,
    Chicago Ohare Intl Ap Ann Htg 99% Condns DB,  !- Name
    1,                       !- Month
    21,                      !- Day of Month
    WinterDesignDay,         !- Day Type
    -16.6,                   !- Maximum Dry-Bulb Temperature {C}
    0.0,                     !- Daily Dry-Bulb Temperature Range {deltaC}
    ,                        !- Dry-Bulb Temperature Range Modifier Type
    ,                        !- Dry-Bulb Temperature Range Modifier Day Schedule Name
    Wetbulb,                 !- Humidity Condition Type
    -16.6,                   !- Wetbulb or DewPoint at Maximum Dry-Bulb {C}
    ,                        !- Humidity Condition Day Schedule Name
    ,                        !- Humidity Ratio at Maximum Dry-Bulb {kgWater/kgDryAir}
    ,                        !- Enthalpy at Maximum Dry-Bulb {J/kg}
    ,                        !- Daily Wet-Bulb Temperature Range {deltaC}
    98886.,                  !- Barometric Pressure {Pa}
    4.9,                     !- Wind Speed {m/s}
    270,                     !- Wind Direction {deg}
    No,                      !- Rain Indicator
    No,                      !- Snow Indicator
    No,                      !- Daylight Saving Time Indicator
    ASHRAEClearSky,          !- Solar Model Indicator
    ,                        !- Beam Solar Day Schedule Name
    ,                        !- Diffuse Solar Day Schedule Name
    ,                        !- ASHRAE Clear Sky Optical Depth for Beam Irradiance (taub) {dimensionless}
    ,                        !- ASHRAE Clear Sky Optical Depth for Diffuse Irradiance (taud) {dimensionless}
    0.00;                    !- Sky Clearness

  SizingPeriod:DesignDay,
    Chicago Ohare Intl Ap Ann Clg 1% Condns DB=>MWB,  !- Name
    7,                       !- Month
    21,                      !- Day of Month
    SummerDesignDay,         !- Day Type
    31.6,                    !- Maximum Dry-Bulb Temperature {C}
    10.5,                    !- Daily Dry-Bulb Temperature Range {deltaC}
    ,                        !- Dry-Bulb Temperature Range Modifier Type
    ,                        !- Dry-Bulb Temperature Range Modifier Day Schedule Name
    Wetbulb,                 !- Humidity Condition Type
    23,                      !- Wetbulb or DewPoint at Maximum Dry-Bulb {C}
    ,                        !- Humidity Condition Day Schedule Name
    ,                        !- Humidity Ratio at Maximum Dry-Bulb {kgWater/kgDryAir}
    ,                        !- Enthalpy at Maximum Dry-Bulb {J/kg}
    ,                        !- Daily Wet-Bulb Temperature Range {deltaC}
    98886.,                  !- Barometric Pressure {Pa}
    5.2,                     !- Wind Speed {m/s}
    230,                     !- Wind Direction {deg}
    No,                      !- Rain Indicator
    No,                      !- Snow Indicator
    No,                      !- Daylight Saving Time Indicator
    ASHRAEClearSky,          !- Solar Model Indicator
    ,                        !- Beam Solar Day Schedule Name
    ,                        !- Diffuse Solar Day Schedule Name
    ,                        !- ASHRAE Clear Sky Optical Depth for Beam Irradiance (taub) {dimensionless}
    ,                        !- ASHRAE Clear Sky Optical Depth for Diffuse Irradiance (taud) {dimensionless}
    1.00;                    !- Sky Clearness

!-   ===========  ALL OBJECTS IN CLASS: RUNPERIOD ===========

  RunPeriod,
    Annual Run,              !- Name
    1,                       !- Begin Month
    1,                       !- Begin Day of Month
    ,                        !- Begin Year
    1,                       !- End Month
    31,                      !- End Day of Month
    ,                        !- End Year
    Tuesday,                 !- Day of Week for Start Day
    Yes,                     !- Use Weather File Holidays and Special Days
    Yes,                     !- Use Weather File Daylight Saving Period
    No,                      !- Apply Weekend Holiday Rule
    Yes,                     !- Use Weather File Rain Indicators
    Yes;                     !- Use Weather File Snow Indicators

!-   ===========  ALL OBJECTS IN CLASS: SITE:GROUNDTEMPERATURE:BUILDINGSURFACE ===========

  Site:GroundTemperature:BuildingSurface,20.03,20.03,20.13,20.30,20.43,20.52,20.62,20.77,20.78,20.55,20.44,20.20;

!-   ===========  ALL OBJECTS IN CLASS: SCHEDULETYPELIMITS ===========

  ScheduleTypeLimits,
    Temperature,             !- Name
    -60,                     !- Lower Limit Value
    200,                     !- Upper Limit Value
    CONTINUOUS,              !- Numeric Type
    Temperature;             !- Unit Type

  ScheduleTypeLimits,
    Any Number;              !- Name

  ScheduleTypeLimits,
    Fraction,                !- Name
    0.0,                     !- Lower Limit Value
    1.0,                     !- Upper Limit Value
    CONTINUOUS;              !- Numeric Type

  ScheduleTypeLimits,
    HVACTemplate Any Number; !- Name

!-   ===========  ALL OBJECTS IN CLASS: SCHEDULE:COMPACT ===========

  Schedule:Compact,
    OCCUPY-1,                !- Name
    Fraction,                !- Schedule Type Limits Name
    Through: 12/31,          !- Field 1
    For: WeekDays SummerDesignDay CustomDay1 CustomDay2, !- Field 2
    Until: 8:00,0.0,         !- Field 3
    Until: 11:00,1.00,       !- Field 5
    Until: 12:00,0.80,       !- Field 7
    Until: 13:00,0.40,       !- Field 9
    Until: 14:00,0.80,       !- Field 11
    Until: 18:00,1.00,       !- Field 13
    Until: 19:00,0.50,       !- Field 15
    Until: 24:00,0.0,        !- Field 17
    For: Weekends WinterDesignDay Holiday, !- Field 19
    Until: 24:00,0.0;        !- Field 20

  Schedule:Compact,
    ActSchd,                 !- Name
    Any Number,              !- Schedule Type Limits Name
    Through: 12/31,          !- Field 1
    For: AllDays,            !- Field 2
    Until: 24:00,100;        !- Field 3

  Schedule:Compact,
    Htg-SetP-Sch,            !- Name
    Temperature,             !- Schedule Type Limits Name
    Through: 12/31,          !- Field 1
    For: WeekDays CustomDay1 CustomDay2, !- Field 2
    Until: 6:00,13.0,        !- Field 3
    Until: 7:00,18.0,        !- Field 5
    Until: 21:00,23.0,       !- Field 7
    Until: 24:00,13.0,       !- Field 9
    For: WeekEnds Holiday,   !- Field 11
    Until: 24:00,13.0,       !- Field 12
    For: SummerDesignDay,    !- Field 14
    Until: 24:00,13.0,       !- Field 15
    For: WinterDesignDay,    !- Field 17
    Until: 24:00,23.0;       !- Field 18

! For cooling, recover 1 hr early

  Schedule:Compact,
    Clg-SetP-Sch,            !- Name
    Temperature,             !- Schedule Type Limits Name
    Through: 12/31,          !- Field 1
    For: WeekDays CustomDay1 CustomDay2, !- Field 2
    Until: 7:00,32.0,        !- Field 3
    Until: 21:00,24.0,       !- Field 5
    Until: 24:00,32.0,       !- Field 7
    For: WeekEnds Holiday,   !- Field 9
    Until: 24:00,32.0,       !- Field 10
    For: SummerDesignDay,    !- Field 12
    Until: 24:00,24.0,       !- Field 13
    For: WinterDesignDay,    !- Field 15
    Until: 24:00,32.0;       !- Field 16

  Schedule:Compact,
    HVACTemplate-Always 4,   !- Name
    HVACTemplate Any Number, !- Schedule Type Limits Name
    Through: 12/31,          !- Field 1
    For: AllDays,            !- Field 2
    Until: 24:00,4;          !- Field 3

  Schedule:Compact,
    HVACTemplate-Always 0,   !- Name
    HVACTemplate Any Number, !- Schedule Type Limits Name
    Through: 12/31,          !- Field 1
    For: AllDays,            !- Field 2
    Until: 24:00,0;          !- Field 3

  Schedule:Compact,
    HVACTemplate-Always 1,   !- Name
    HVACTemplate Any Number, !- Schedule Type Limits Name
    Through: 12/31,          !- Field 1
    For: AllDays,            !- Field 2
    Until: 24:00,1;          !- Field 3

  Schedule:Compact,
    HVACTemplate-Always 34,  !- Name
    HVACTemplate Any Number, !- Schedule Type Limits Name
    Through: 12/31,          !- Field 1
    For: AllDays,            !- Field 2
    Until: 24:00,34;         !- Field 3

  Schedule:Compact,
    HVACTemplate-Always 20,  !- Name
    HVACTemplate Any Number, !- Schedule Type Limits Name
    Through: 12/31,          !- Field 1
    For: AllDays,            !- Field 2
    Until: 24:00,20;         !- Field 3

!-   ===========  ALL OBJECTS IN CLASS: MATERIAL ===========

  Material,
    Composite 2x6 Wood Stud R19 #1,  !- Name
    Smooth,                  !- Roughness
    0.019,                   !- Thickness {m}
    0.137,                   !- Conductivity {W/m-K}
    640.0,                   !- Density {kg/m3}
    1006,                    !- Specific Heat {J/kg-K}
    0.9,                     !- Thermal Absorptance
    0.7,                     !- Solar Absorptance
    0.7;                     !- Visible Absorptance

  Material,
    Composite 2x6 Wood Stud R19 #2,  !- Name
    Smooth,                  !- Roughness
    0.133,                   !- Thickness {m}
    0.047,                   !- Conductivity {W/m-K}
    93.84,                   !- Density {kg/m3}
    1006,                    !- Specific Heat {J/kg-K}
    0.9,                     !- Thermal Absorptance
    0.7,                     !- Solar Absorptance
    0.7;                     !- Visible Absorptance

  Material,
    Composite 2x6 Wood Stud R19 #3,  !- Name
    Smooth,                  !- Roughness
    0.025,                   !- Thickness {m}
    0.246,                   !- Conductivity {W/m-K}
    492.67,                  !- Density {kg/m3}
    1006,                    !- Specific Heat {J/kg-K}
    0.9,                     !- Thermal Absorptance
    0.7,                     !- Solar Absorptance
    0.7;                     !- Visible Absorptance

  Material,
    Slab Material,           !- Name
    MediumRough,             !- Roughness
    0.15,                    !- Thickness {m}
    1.8,                     !- Conductivity {W/m-K}
    2400,                    !- Density {kg/m3}
    750,                     !- Specific Heat {J/kg-K}
    0.9,                     !- Thermal Absorptance
    0.65,                    !- Solar Absorptance
    0.65;                    !- Visible Absorptance

  Material,
    Insulation,              !- Name
    Smooth,                  !- Roughness
    0.0254,                  !- Thickness {m}
    0.035,                   !- Conductivity {W/m-K}
    265,                     !- Density {kg/m3}
    1300,                    !- Specific Heat {J/kg-K}
    0.9,                     !- Thermal Absorptance
    0.65,                    !- Solar Absorptance
    0.65;                    !- Visible Absorptance

!-   ===========  ALL OBJECTS IN CLASS: MATERIAL:NOMASS ===========

  Material:NoMass,
    Roof Layer 1,            !- Name
    Rough,                   !- Roughness
    3.344,                   !- Thermal Resistance {m2-K/W}
    0.9000000,               !- Thermal Absorptance
    0.7500000,               !- Solar Absorptance
    0.7500000;               !- Visible Absorptance

!-   ===========  ALL OBJECTS IN CLASS: CONSTRUCTION ===========

  Construction,
    Floor Construction,      !- Name
    Slab Material;           !- Outside Layer

  Construction,
    Roof Construction,       !- Name
    Roof Layer 1;            !- Outside Layer

! ASHRAE 1145-RP Wall Assembly 2
! 2"x6" wood studs at 24" on center with between-stud R19 fibreglass insulation.
! Layers are 1/2" wood siding, 1/2" plywood, 2x6 wood studs and R19 insulation, 1/2" gypsum board.
! Area-average R-Value = 17.487 ft2-F-h/Btu (3.078 m2-K/W).
! Total wall thickness = 7.00in (0.178m)
! Material layer names follow:

  Construction,
    Main Floor Wall Construction,  !- Name
    Composite 2x6 Wood Stud R19 #3,  !- Outside Layer
    Composite 2x6 Wood Stud R19 #2,  !- Layer 2
    Composite 2x6 Wood Stud R19 #1;  !- Layer 3

!-   ===========  ALL OBJECTS IN CLASS: GLOBALGEOMETRYRULES ===========

  GlobalGeometryRules,
    UpperLeftCorner,         !- Starting Vertex Position
    CounterClockWise,        !- Vertex Entry Direction
    Relative;                !- Coordinate System

!-   ===========  ALL OBJECTS IN CLASS: ZONE ===========

  Zone,
    Main Floor,              !- Name
    0,                       !- Direction of Relative North {deg}
    0,                       !- X Origin {m}
    0,                       !- Y Origin {m}
    0,                       !- Z Origin {m}
    ,                        !- Type
    ,                        !- Multiplier
    autocalculate,           !- Ceiling Height {m}
    autocalculate,           !- Volume {m3}
    autocalculate,           !- Floor Area {m2}
    Simple,                  !- Zone Inside Convection Algorithm
    SimpleCombined,          !- Zone Outside Convection Algorithm
    Yes;                     !- Part of Total Floor Area

!-   ===========  ALL OBJECTS IN CLASS: BUILDINGSURFACE:DETAILED ===========

  BuildingSurface:Detailed,
    Main Floor Wall 1,       !- Name
    Wall,                    !- Surface Type
    Main Floor Wall Construction,  !- Construction Name
    Main Floor,              !- Zone Name
    ,                        !- Space Name
    Outdoors,                !- Outside Boundary Condition
    ,                        !- Outside Boundary Condition Object
    SunExposed,              !- Sun Exposure
    WindExposed,             !- Wind Exposure
    autocalculate,           !- View Factor to Ground
    4,                       !- Number of Vertices
    10.0,10.0,3.1,  !- X,Y,Z ==> Vertex 1 {m}
    10.0,10.0,0.0,  !- X,Y,Z ==> Vertex 2 {m}
    0.0,10.0,0.0,  !- X,Y,Z ==> Vertex 3 {m}
    0.0,10.0,3.1;  !- X,Y,Z ==> Vertex 4 {m}

  BuildingSurface:Detailed,
    Main Floor Wall 2,       !- Name
    Wall,                    !- Surface Type
    Main Floor Wall Construction,  !- Construction Name
    Main Floor,              !- Zone Name
    ,                        !- Space Name
    Outdoors,                !- Outside Boundary Condition
    ,                        !- Outside Boundary Condition Object
    SunExposed,              !- Sun Exposure
    WindExposed,             !- Wind Exposure
    autocalculate,           !- View Factor to Ground
    4,                       !- Number of Vertices
    0.0,0.0,3.1,  !- X,Y,Z ==> Vertex 1 {m}
    0.0,0.0,0.0,  !- X,Y,Z ==> Vertex 2 {m}
    10.0,0.0,0.0,  !- X,Y,Z ==> Vertex 3 {m}
    10.0,0.0,3.1;  !- X,Y,Z ==> Vertex 4 {m}

  BuildingSurface:Detailed,
    Main Floor Wall 3,       !- Name
    Wall,                    !- Surface Type
    Main Floor Wall Construction,  !- Construction Name
    Main Floor,              !- Zone Name
    ,                        !- Space Name
    Outdoors,                !- Outside Boundary Condition
    ,                        !- Outside Boundary Condition Object
    SunExposed,              !- Sun Exposure
    WindExposed,             !- Wind Exposure
    autocalculate,           !- View Factor to Ground
    4,                       !- Number of Vertices
    10.0,0.0,3.1,  !- X,Y,Z ==> Vertex 1 {m}
    10.0,0.0,0.0,  !- X,Y,Z ==> Vertex 2 {m}
    10.0,10.0,0.0,  !- X,Y,Z ==> Vertex 3 {m}
    10.0,10.0,3.1;  !- X,Y,Z ==> Vertex 4 {m}

  BuildingSurface:Detailed,
    Main Floor Wall 4,       !- Name
    Wall,                    !- Surface Type
    Main Floor Wall Construction,  !- Construction Name
    Main Floor,              !- Zone Name
    ,                        !- Space Name
    Outdoors,                !- Outside Boundary Condition
    ,                        !- Outside Boundary Condition Object
    SunExposed,              !- Sun Exposure
    WindExposed,             !- Wind Exposure
    autocalculate,           !- View Factor to Ground
    4,                       !- Number of Vertices
    0.0,10.0,3.1,  !- X,Y,Z ==> Vertex 1 {m}
    0.0,10.0,0.0,  !- X,Y,Z ==> Vertex 2 {m}
    0.0,0.0,0.0,  !- X,Y,Z ==> Vertex 3 {m}
    0.0,0.0,3.1;  !- X,Y,Z ==> Vertex 4 {m}

  BuildingSurface:Detailed,
    Main Floor Roof,         !- Name
    Roof,                    !- Surface Type
    Roof Construction,       !- Construction Name
    Main Floor,              !- Zone Name
    ,                        !- Space Name
    Outdoors,                !- Outside Boundary Condition
    ,                        !- Outside Boundary Condition Object
    SunExposed,              !- Sun Exposure
    WindExposed,             !- Wind Exposure
    autocalculate,           !- View Factor to Ground
    4,                       !- Number of Vertices
    0.0,10.0,3.1,  !- X,Y,Z ==> Vertex 1 {m}
    0.0,0.0,3.1,  !- X,Y,Z ==> Vertex 2 {m}
    10.0,0.0,3.1,  !- X,Y,Z ==> Vertex 3 {m}
    10.0,10.0,3.1;  !- X,Y,Z ==> Vertex 4 {m}

  BuildingSurface:Detailed,
    Zone Floor,              !- Name
    Floor,                   !- Surface Type
    Floor Construction,      !- Construction Name
    Main Floor,              !- Zone Name
    ,                        !- Space Name
    Ground,                  !- Outside Boundary Condition
    ,                        !- Outside Boundary Condition Object
    NoSun,                   !- Sun Exposure
    NoWind,                  !- Wind Exposure
    autocalculate,           !- View Factor to Ground
    4,                       !- Number of Vertices
    10.0,10.0,0.0,  !- X,Y,Z ==> Vertex 1 {m}
    10.0,0.0,0.0,  !- X,Y,Z ==> Vertex 2 {m}
    0.0,0.0,0.0,  !- X,Y,Z ==> Vertex 3 {m}
    0.0,10.0,0.0;  !- X,Y,Z ==> Vertex 4 {m}

!-   ===========  ALL OBJECTS IN CLASS: PEOPLE ===========

  People,
    Main Floor= People 1,    !- Name
    Main Floor,              !- Zone or ZoneList or Space or SpaceList Name
    OCCUPY-1,                !- Number of People Schedule Name
    people,                  !- Number of People Calculation Method
    11,                      !- Number of People
    ,                        !- People per Floor Area {person/m2}
    ,                        !- Floor Area per Person {m2/person}
    0.3,                     !- Fraction Radiant
    ,                        !- Sensible Heat Fraction
    ActSchd;                 !- Activity Level Schedule Name

!-   ===========  ALL OBJECTS IN CLASS: DESIGNSPECIFICATION:OUTDOORAIR ===========

  DesignSpecification:OutdoorAir,
    SZ DSOA Main Floor,      !- Name
    Flow/Person,             !- Outdoor Air Method
    0.00944,                 !- Outdoor Air Flow per Person {m3/s-person}
    0.0,                     !- Outdoor Air Flow per Zone Floor Area {m3/s-m2}
    0.0;                     !- Outdoor Air Flow per Zone {m3/s}

!-   ===========  ALL OBJECTS IN CLASS: DESIGNSPECIFICATION:ZONEAIRDISTRIBUTION ===========

  DesignSpecification:ZoneAirDistribution,
    SZ DSZAD Main Floor,     !- Name
    1,                       !- Zone Air Distribution Effectiveness in Cooling Mode {dimensionless}
    1;                       !- Zone Air Distribution Effectiveness in Heating Mode {dimensionless}

!-   ===========  ALL OBJECTS IN CLASS: SIZING:ZONE ===========

  Sizing:Zone,
    Main Floor,              !- Zone or ZoneList Name
    SupplyAirTemperature,    !- Zone Cooling Design Supply Air Temperature Input Method
    14.0,                    !- Zone Cooling Design Supply Air Temperature {C}
    11.11,                   !- Zone Cooling Design Supply Air Temperature Difference {deltaC}
    SupplyAirTemperature,    !- Zone Heating Design Supply Air Temperature Input Method
    50.0,                    !- Zone Heating Design Supply Air Temperature {C}
    ,                        !- Zone Heating Design Supply Air Temperature Difference {deltaC}
    0.008,                   !- Zone Cooling Design Supply Air Humidity Ratio {kgWater/kgDryAir}
    0.008,                   !- Zone Heating Design Supply Air Humidity Ratio {kgWater/kgDryAir}
    SZ DSOA Main Floor,      !- Design Specification Outdoor Air Object Name
    ,                        !- Zone Heating Sizing Factor
    ,                        !- Zone Cooling Sizing Factor
    DesignDay,               !- Cooling Design Air Flow Method
    0,                       !- Cooling Design Air Flow Rate {m3/s}
    ,                        !- Cooling Minimum Air Flow per Zone Floor Area {m3/s-m2}
    ,                        !- Cooling Minimum Air Flow {m3/s}
    0,                       !- Cooling Minimum Air Flow Fraction
    DesignDay,               !- Heating Design Air Flow Method
    0,                       !- Heating Design Air Flow Rate {m3/s}
    ,                        !- Heating Maximum Air Flow per Zone Floor Area {m3/s-m2}
    ,                        !- Heating Maximum Air Flow {m3/s}
    0,                       !- Heating Maximum Air Flow Fraction
    SZ DSZAD Main Floor,     !- Design Specification Zone Air Distribution Object Name
    No,                      !- Account for Dedicated Outdoor Air System
    NeutralSupplyAir,        !- Dedicated Outdoor Air System Control Strategy
    autosize,                !- Dedicated Outdoor Air Low Setpoint Temperature for Design {C}
    autosize;                !- Dedicated Outdoor Air High Setpoint Temperature for Design {C}

!-   ===========  ALL OBJECTS IN CLASS: SIZING:PLANT ===========

  Sizing:Plant,
    Ground Loop Water Loop,  !- Plant or Condenser Loop Name
    Condenser,               !- Loop Type
    34,                      !- Design Loop Exit Temperature {C}
    5.6;                     !- Loop Design Temperature Difference {deltaC}

!-   ===========  ALL OBJECTS IN CLASS: ZONECONTROL:THERMOSTAT ===========

  ZoneControl:Thermostat,
    Main Floor Thermostat,   !- Name
    Main Floor,              !- Zone or ZoneList Name
    HVACTemplate-Always 4,   !- Control Type Schedule Name
    ThermostatSetpoint:DualSetpoint,  !- Control 1 Object Type
    All Zones Dual SP Control;  !- Control 1 Name

!-   ===========  ALL OBJECTS IN CLASS: THERMOSTATSETPOINT:DUALSETPOINT ===========

  ThermostatSetpoint:DualSetpoint,
    All Zones Dual SP Control,  !- Name
    Htg-SetP-Sch,            !- Heating Setpoint Temperature Schedule Name
    Clg-SetP-Sch;            !- Cooling Setpoint Temperature Schedule Name

!-   ===========  ALL OBJECTS IN CLASS: ZONEHVAC:WATERTOAIRHEATPUMP ===========

  ZoneHVAC:WaterToAirHeatPump,
    Main Floor WAHP,         !- Name
    ,                        !- Availability Schedule Name
    Main Floor WAHP Return,  !- Air Inlet Node Name
    Main Floor WAHP Supply Inlet,  !- Air Outlet Node Name
    OutdoorAir:Mixer,        !- Outdoor Air Mixer Object Type
    Main Floor WAHP OA Mixing Box,  !- Outdoor Air Mixer Name
    Autosize,                !- Cooling Supply Air Flow Rate {m3/s}
    Autosize,                !- Heating Supply Air Flow Rate {m3/s}
    ,                        !- No Load Supply Air Flow Rate {m3/s}
    ,                        !- No Load Supply Air Flow Rate Control Set To Low Speed
    Autosize,                !- Cooling Outdoor Air Flow Rate {m3/s}
    Autosize,                !- Heating Outdoor Air Flow Rate {m3/s}
    Autosize,                !- No Load Outdoor Air Flow Rate {m3/s}
    Fan:OnOff,               !- Supply Air Fan Object Type
    Main Floor WAHP Supply Fan,  !- Supply Air Fan Name
    Coil:Heating:WaterToAirHeatPump:EquationFit,  !- Heating Coil Object Type
    Main Floor WAHP Heating Coil,  !- Heating Coil Name
    Coil:Cooling:WaterToAirHeatPump:EquationFit,  !- Cooling Coil Object Type
    Main Floor WAHP Cooling Coil,  !- Cooling Coil Name
    Coil:Heating:Electric,   !- Supplemental Heating Coil Object Type
    Main Floor WAHP Supp Heating Coil,  !- Supplemental Heating Coil Name
    Autosize,                !- Maximum Supply Air Temperature from Supplemental Heater {C}
    20.0,                    !- Maximum Outdoor Dry-Bulb Temperature for Supplemental Heater Operation {C}
    Main Floor WAHP Outside Air Inlet,  !- Outdoor Dry-Bulb Temperature Sensor Node Name
    DrawThrough,             !- Fan Placement
    HVACTemplate-Always 0,   !- Supply Air Fan Operating Mode Schedule Name
    ,                        !- Availability Manager List Name
    Cycling;                 !- Heat Pump Coil Water Flow Mode

!-   ===========  ALL OBJECTS IN CLASS: ZONEHVAC:EQUIPMENTLIST ===========

  ZoneHVAC:EquipmentList,
    Main Floor Equipment,    !- Name
    ,                        !- Load Distribution Scheme
    ZoneHVAC:WaterToAirHeatPump,  !- Zone Equipment 1 Object Type
    Main Floor WAHP,         !- Zone Equipment 1 Name
    1,                       !- Zone Equipment 1 Cooling Sequence
    1,                       !- Zone Equipment 1 Heating or No-Load Sequence
    ,                        !- Zone Equipment 1 Sequential Cooling Fraction Schedule Name
    ;                        !- Zone Equipment 1 Sequential Heating Fraction Schedule Name

!-   ===========  ALL OBJECTS IN CLASS: ZONEHVAC:EQUIPMENTCONNECTIONS ===========

  ZoneHVAC:EquipmentConnections,
    Main Floor,              !- Zone Name
    Main Floor Equipment,    !- Zone Conditioning Equipment List Name
    Main Floor WAHP Supply Inlet,  !- Zone Air Inlet Node or NodeList Name
    Main Floor WAHP Return,  !- Zone Air Exhaust Node or NodeList Name
    Main Floor Zone Air Node,!- Zone Air Node Name
    Main Floor Return Outlet;!- Zone Return Air Node or NodeList Name

!-   ===========  ALL OBJECTS IN CLASS: FAN:ONOFF ===========

  Fan:OnOff,
    Main Floor WAHP Supply Fan,  !- Name
    HVACTemplate-Always 1,   !- Availability Schedule Name
    0.7,                     !- Fan Total Efficiency
    75,                      !- Pressure Rise {Pa}
    Autosize,                !- Maximum Flow Rate {m3/s}
    0.9,                     !- Motor Efficiency
    1,                       !- Motor In Airstream Fraction
    Main Floor WAHP Heating Coil Outlet,  !- Air Inlet Node Name
    Main Floor WAHP Supply Fan Outlet;  !- Air Outlet Node Name

!-   ===========  ALL OBJECTS IN CLASS: COIL:HEATING:ELECTRIC ===========

  Coil:Heating:Electric,
    Main Floor WAHP Supp Heating Coil,  !- Name
    ,                        !- Availability Schedule Name
    1,                       !- Efficiency
    Autosize,                !- Nominal Capacity {W}
    Main Floor WAHP Supply Fan Outlet,  !- Air Inlet Node Name
    Main Floor WAHP Supply Inlet;  !- Air Outlet Node Name

!-   ===========  ALL OBJECTS IN CLASS: COIL:COOLING:WATERTOAIRHEATPUMP:EQUATIONFIT ===========
! Performance coefficients assume rated Capacities and COP are at:
! 27.0C (80.6F) entering air dry-bulb temperature, 19.0C (66.2F) entering air wet-bulb temperature
! and 25.0C (77F) entering water temperature

  Coil:Cooling:WaterToAirHeatPump:EquationFit,
    Main Floor WAHP Cooling Coil,  !- Name
    Main Floor WAHP Cooling Water Inlet Node,  !- Water Inlet Node Name
    Main Floor WAHP Cooling Water Outlet Node,  !- Water Outlet Node Name
    Main Floor WAHP Mixed Air Outlet,  !- Air Inlet Node Name
    Main Floor WAHP Cooling Coil Outlet,  !- Air Outlet Node Name