!-Generator IDFEditor 1.34
!-Option SortedOrder UseSpecialFormat
!-NOTE: All comments with '!-' are ignored by the IDFEditor and are generated automatically.
!-      Use '!' comments if they need to be retained when using the IDFEditor.
!-   ===========  ALL OBJECTS IN CLASS: VERSION ===========
! Name of file: HAMT_HourlyProfileReport.idf
!
! Basic file description:
! Single zone single story lightweight building.
! The building is orientated with its long axis east-west. Windows are on the south wall.
!
! Highlights:
! To demonstrate the use of the HAMT solution algorithm,
! including the use of fixed vapor transfer coefficients
!
! Simulation Location/Run:
! autosizing using Denver winter & summer design days;
! simulation; 1 winter, 1 summer day.
!
! Location: Chicago, IL
! Run Period (Weather File): 1 months, USA_IL_Chicago-OHare_TMY2
! Timestep: 20 per hour.
!
! Building:
!    ______________________
!   |\                    /|
!   | \                  / |     NORTH
!   |  \________________/  |      ^
!   |  |                |  |     /|\
!   |  |                |  |      |
!   |  |                |  |6 m   |
!   |  |                |  |      |
!   |  |                |  |      |
!   |  |________________|  |
!   |  / ____     ____  \  |
!   | / /____\   /____\  \ |
!   |/____________________\|
!             8 m
!     ______________________
!    |  _____       _____   |
!    | |     |     |     |  | 2.7m
!    | |_____|     |_____|  |
!    |______________________|
!
! Both windows are 2m high and 3m wide,
! separated by 1m, 0.5m from the roof
! and 0.5m from either side of the building.
!
! Floor area: 48 m2
! Dimensions: 8 m x 6 m
! Floor height: 2.7 m
! conditioned floor. No basement
! Number of Stories: 1
!
! Shell characteristics:
! Roof construction: Flat roof, plywood, insulation, spruce panel
! Wall construction:  spruce siding, conctete, cellulose insulation, spruce panel
! Floor construction: Glass fibre insulation, spruce flooring
!
! Windows
! The area of each window is 6 m2 , giving a total glazed area of 12 m2
! The windows were double glazed with an air gap:
!
! Glass:
! Pane Thickness: 0.003175 m
! Solar Transmittance at normal incidence: 0.86156
! Solar reflectance at normal incidence: Front side: 0.07846
! Solar reflectance at normal incidence: Back side: 0.07846
! Visible transmittance at normal incidence: 0.91325
! Visible reflectance at normal incidence: Front side: 0.082
! Visible reflectance at normal incidence: Back side: 0.082
! IR Transmittance at Normal Incidence: 0
! IR Hemispherical Emissivity: Front Side 0.84
! IR Hemishpherical Emissivity: Back Side 0.84
! Conductivity 1.06 W/mK
!
! Air Gap:
! Air Gap thickness: 0.013 m
!
! All other material properties are set to use the HAMT solutions algorithm
!
! Infiltration:
! All hours: 0.5 ACH
!
! Internal Loads:
! The  same internal load schedule is used for every day of the simulation year:
! Sensible:
! 800 watts all day
! Latent:
! 0 watts between 0 and 0900 hours and between 1700 and 2400 hours
! 352.6 watts between 0900 hours and 1700 hours.
!
! System controls are:
! Heating  20.0 C
! Cooling 27.0 C
!
! HVAC:
! 100% convective air system, thermostat on room temperature, no latent load,
! Compact FanCoil system is used. System is autosized.
!
! Reporting:
!      Outdoor Dry Bulb,                 daily;
!      Outdoor Relative Humidity,        daily;
!      Zone Mean Air Temperature,        daily;
!      Zone Air Relative Humidity,       daily;
!      Zone/Sys Sensible Heating Rate,   daily;
!      Zone/Sys Sensible Cooling Rate,   daily;
!
!      The following report variables are selected as an example for
!      east wall only
!      HAMT-Surface Water Content ,      daily;
!
!      HAMT-Profile Construction 1 Cell 1 Temperature,  daily;
!            .. through to ..
!      HAMT-Profile Construction 1 Cell 22 Temperature, daily;
!
!      HAMT-Profile Construction 1 Cell 1 Water,        daily;
!            .. through to ..
!      HAMT-Profile Construction 1 Cell 22 Water,       daily;
!
!      HAMT-Profile Construction 1 Cell 1 RH,           daily;
!            .. through to ..
!      HAMT-Profile Construction 1 Cell 22 RH,          daily;
!
!

  Version,24.1;

!-   ===========  ALL OBJECTS IN CLASS: SIMULATIONCONTROL ===========

  SimulationControl,
    Yes,                     !- Do Zone Sizing Calculation
    Yes,                     !- Do System Sizing Calculation
    No,                      !- Do Plant Sizing Calculation
    Yes,                     !- Run Simulation for Sizing Periods
    Yes,                     !- Run Simulation for Weather File Run Periods
    No,                      !- Do HVAC Sizing Simulation for Sizing Periods
    1;                       !- Maximum Number of HVAC Sizing Simulation Passes

!-   ===========  ALL OBJECTS IN CLASS: BUILDING ===========

  Building,
    HAMT test 1,             !- Name
    0,                       !- North Axis {deg}
    ,                        !- Terrain
    0.04,                    !- Loads Convergence Tolerance Value {W}
    0.4,                     !- Temperature Convergence Tolerance Value {deltaC}
    MinimalShadowing,        !- Solar Distribution
    25,                      !- Maximum Number of Warmup Days
    6;                       !- Minimum Number of Warmup Days

!-   ===========  ALL OBJECTS IN CLASS: HEATBALANCEALGORITHM ===========

  HeatBalanceAlgorithm,CombinedHeatAndMoistureFiniteElement,200;

!-   ===========  ALL OBJECTS IN CLASS: TIMESTEP ===========

  Timestep,20;

!-   ===========  ALL OBJECTS IN CLASS: SURFACECONVECTIONALGORITHM:INSIDE ===========

  SurfaceConvectionAlgorithm:Inside,TARP;

!-   ===========  ALL OBJECTS IN CLASS: SURFACECONVECTIONALGORITHM:OUTSIDE ===========

  SurfaceConvectionAlgorithm:Outside,DOE-2;

!-   ===========  ALL OBJECTS IN CLASS: SIZINGPERIOD:DESIGNDAY ===========

  SizingPeriod:DesignDay,
    CHICAGO_IL_USA Annual Heating 99% Design Conditions DB,  !- Name
    1,                       !- Month
    21,                      !- Day of Month
    WinterDesignDay,         !- Day Type
    -17.3,                   !- Maximum Dry-Bulb Temperature {C}
    0.0,                     !- Daily Dry-Bulb Temperature Range {deltaC}
    ,                        !- Dry-Bulb Temperature Range Modifier Type
    ,                        !- Dry-Bulb Temperature Range Modifier Day Schedule Name
    Wetbulb,                 !- Humidity Condition Type
    -17.3,                   !- Wetbulb or DewPoint at Maximum Dry-Bulb {C}
    ,                        !- Humidity Condition Day Schedule Name
    ,                        !- Humidity Ratio at Maximum Dry-Bulb {kgWater/kgDryAir}
    ,                        !- Enthalpy at Maximum Dry-Bulb {J/kg}
    ,                        !- Daily Wet-Bulb Temperature Range {deltaC}
    99063.,                  !- Barometric Pressure {Pa}
    4.9,                     !- Wind Speed {m/s}
    270,                     !- Wind Direction {deg}
    No,                      !- Rain Indicator
    No,                      !- Snow Indicator
    No,                      !- Daylight Saving Time Indicator
    ASHRAEClearSky,          !- Solar Model Indicator
    ,                        !- Beam Solar Day Schedule Name
    ,                        !- Diffuse Solar Day Schedule Name
    ,                        !- ASHRAE Clear Sky Optical Depth for Beam Irradiance (taub) {dimensionless}
    ,                        !- ASHRAE Clear Sky Optical Depth for Diffuse Irradiance (taud) {dimensionless}
    0.0;                     !- Sky Clearness

  SizingPeriod:DesignDay,
    CHICAGO_IL_USA Annual Cooling 1% Design Conditions DB/MCWB,  !- Name
    7,                       !- Month
    21,                      !- Day of Month
    SummerDesignDay,         !- Day Type
    31.5,                    !- Maximum Dry-Bulb Temperature {C}
    10.7,                    !- Daily Dry-Bulb Temperature Range {deltaC}
    ,                        !- Dry-Bulb Temperature Range Modifier Type
    ,                        !- Dry-Bulb Temperature Range Modifier Day Schedule Name
    Wetbulb,                 !- Humidity Condition Type
    23.0,                    !- Wetbulb or DewPoint at Maximum Dry-Bulb {C}
    ,                        !- Humidity Condition Day Schedule Name
    ,                        !- Humidity Ratio at Maximum Dry-Bulb {kgWater/kgDryAir}
    ,                        !- Enthalpy at Maximum Dry-Bulb {J/kg}
    ,                        !- Daily Wet-Bulb Temperature Range {deltaC}
    99063.,                  !- Barometric Pressure {Pa}
    5.3,                     !- Wind Speed {m/s}
    230,                     !- Wind Direction {deg}
    No,                      !- Rain Indicator
    No,                      !- Snow Indicator
    No,                      !- Daylight Saving Time Indicator
    ASHRAEClearSky,          !- Solar Model Indicator
    ,                        !- Beam Solar Day Schedule Name
    ,                        !- Diffuse Solar Day Schedule Name
    ,                        !- ASHRAE Clear Sky Optical Depth for Beam Irradiance (taub) {dimensionless}
    ,                        !- ASHRAE Clear Sky Optical Depth for Diffuse Irradiance (taud) {dimensionless}
    1.0;                     !- Sky Clearness

!-   ===========  ALL OBJECTS IN CLASS: RUNPERIOD ===========

  RunPeriod,
    Run Period 1,            !- Name
    1,                       !- Begin Month
    1,                       !- Begin Day of Month
    ,                        !- Begin Year
    1,                       !- End Month
    31,                      !- End Day of Month
    ,                        !- End Year
    ,                        !- Day of Week for Start Day
    Yes,                     !- Use Weather File Holidays and Special Days
    Yes,                     !- Use Weather File Daylight Saving Period
    Yes,                     !- Apply Weekend Holiday Rule
    No,                      !- Use Weather File Rain Indicators
    No;                      !- Use Weather File Snow Indicators

!-   ===========  ALL OBJECTS IN CLASS: SITE:GROUNDTEMPERATURE:BUILDINGSURFACE ===========

  Site:GroundTemperature:BuildingSurface,18,18,18,18,18,18,18,18,18,18,18,18;

!-   ===========  ALL OBJECTS IN CLASS: SCHEDULETYPELIMITS ===========

  ScheduleTypeLimits,
    Fraction,                !- Name
    0.0,                     !- Lower Limit Value
    1.0,                     !- Upper Limit Value
    CONTINUOUS;              !- Numeric Type

  ScheduleTypeLimits,
    Any Number;              !- Name

  ScheduleTypeLimits,
    Temperature,             !- Name
    -60,                     !- Lower Limit Value
    200,                     !- Upper Limit Value
    CONTINUOUS,              !- Numeric Type
    Temperature;             !- Unit Type

  ScheduleTypeLimits,
    Control Type,            !- Name
    0,                       !- Lower Limit Value
    4,                       !- Upper Limit Value
    DISCRETE;                !- Numeric Type

  ScheduleTypeLimits,
    On/Off,                  !- Name
    0,                       !- Lower Limit Value
    1,                       !- Upper Limit Value
    DISCRETE;                !- Numeric Type

  ScheduleTypeLimits,
    FlowRate,                !- Name
    0.0,                     !- Lower Limit Value
    10,                      !- Upper Limit Value
    CONTINUOUS;              !- Numeric Type

!-   ===========  ALL OBJECTS IN CLASS: SCHEDULE:DAY:HOURLY ===========

  Schedule:Day:Hourly,
    On,                      !- Name
    Fraction,                !- Schedule Type Limits Name
    1,                       !- Hour 1
    1,                       !- Hour 2
    1,                       !- Hour 3
    1,                       !- Hour 4
    1,                       !- Hour 5
    1,                       !- Hour 6
    1,                       !- Hour 7
    1,                       !- Hour 8
    1,                       !- Hour 9
    1,                       !- Hour 10
    1,                       !- Hour 11
    1,                       !- Hour 12
    1,                       !- Hour 13
    1,                       !- Hour 14
    1,                       !- Hour 15
    1,                       !- Hour 16
    1,                       !- Hour 17
    1,                       !- Hour 18
    1,                       !- Hour 19
    1,                       !- Hour 20
    1,                       !- Hour 21
    1,                       !- Hour 22
    1,                       !- Hour 23
    1;                       !- Hour 24

  Schedule:Day:Hourly,
    Moisture annex 41,       !- Name
    Fraction,                !- Schedule Type Limits Name
    0,                       !- Hour 1
    0,                       !- Hour 2
    0,                       !- Hour 3
    0,                       !- Hour 4
    0,                       !- Hour 5
    0,                       !- Hour 6
    0,                       !- Hour 7
    0,                       !- Hour 8
    0,                       !- Hour 9
    1,                       !- Hour 10
    1,                       !- Hour 11
    1,                       !- Hour 12
    1,                       !- Hour 13
    1,                       !- Hour 14
    1,                       !- Hour 15
    1,                       !- Hour 16
    1,                       !- Hour 17
    0,                       !- Hour 18
    0,                       !- Hour 19
    0,                       !- Hour 20
    0,                       !- Hour 21
    0,                       !- Hour 22
    0,                       !- Hour 23
    0;                       !- Hour 24

!-   ===========  ALL OBJECTS IN CLASS: SCHEDULE:WEEK:DAILY ===========

  Schedule:Week:Daily,
    WeekOn,                  !- Name
    On,                      !- Sunday Schedule:Day Name
    On,                      !- Monday Schedule:Day Name
    On,                      !- Tuesday Schedule:Day Name
    On,                      !- Wednesday Schedule:Day Name
    On,                      !- Thursday Schedule:Day Name
    On,                      !- Friday Schedule:Day Name
    On,                      !- Saturday Schedule:Day Name
    On,                      !- Holiday Schedule:Day Name
    On,                      !- SummerDesignDay Schedule:Day Name
    On,                      !- WinterDesignDay Schedule:Day Name
    On,                      !- CustomDay1 Schedule:Day Name
    On;                      !- CustomDay2 Schedule:Day Name

  Schedule:Week:Daily,
    Weekon moisture,         !- Name
    Moisture annex 41,       !- Sunday Schedule:Day Name
    Moisture annex 41,       !- Monday Schedule:Day Name
    Moisture annex 41,       !- Tuesday Schedule:Day Name
    Moisture annex 41,       !- Wednesday Schedule:Day Name
    Moisture annex 41,       !- Thursday Schedule:Day Name
    Moisture annex 41,       !- Friday Schedule:Day Name
    Moisture annex 41,       !- Saturday Schedule:Day Name
    Moisture annex 41,       !- Holiday Schedule:Day Name
    Moisture annex 41,       !- SummerDesignDay Schedule:Day Name
    Moisture annex 41,       !- WinterDesignDay Schedule:Day Name
    Moisture annex 41,       !- CustomDay1 Schedule:Day Name
    Moisture annex 41;       !- CustomDay2 Schedule:Day Name

!-   ===========  ALL OBJECTS IN CLASS: SCHEDULE:YEAR ===========

  Schedule:Year,
    On,                      !- Name
    Fraction,                !- Schedule Type Limits Name
    WeekOn,                  !- Schedule:Week Name 1
    1,                       !- Start Month 1
    1,                       !- Start Day 1
    12,                      !- End Month 1
    31;                      !- End Day 1

  Schedule:Year,
    Moisture on,             !- Name
    Fraction,                !- Schedule Type Limits Name
    Weekon moisture,         !- Schedule:Week Name 1
    1,                       !- Start Month 1
    1,                       !- Start Day 1
    12,                      !- End Month 1
    31;                      !- End Day 1

!-   ===========  ALL OBJECTS IN CLASS: SCHEDULE:COMPACT ===========

  Schedule:Compact,
    Htg-SetP-Sch,            !- Name
    Temperature,             !- Schedule Type Limits Name
    Through: 12/31,          !- Field 1
    For: WeekDays CustomDay1 CustomDay2 Sunday Saturday Holiday SummerDesignDay WinterDesignDay", !- Field 2
    Until: 24:00,20;         !- Field 3

  Schedule:Compact,
    Clg-SetP-Sch,            !- Name
    Temperature,             !- Schedule Type Limits Name
    Through: 12/31,          !- Field 1
    For: WeekDays CustomDay1 CustomDay2 Sunday Saturday Holiday SummerDesignDay WinterDesignDay", !- Field 2
    Until: 24:00,20;         !- Field 3

  Schedule:Compact,
    FanAvailSched,           !- Name
    Temperature,             !- Schedule Type Limits Name
    Through: 12/31,          !- Field 1
    For: WeekDays CustomDay1 CustomDay2 Sunday Saturday Holiday SummerDesignDay WinterDesignDay", !- Field 2
    Until: 24:00,1;          !- Field 3

!-   ===========  ALL OBJECTS IN CLASS: MATERIAL ===========

  Material,
    Concrete,                !- Name
    Rough,                   !- Roughness
    0.1,                     !- Thickness {m}
    1.6,                     !- Conductivity {W/m-K}
    2300,                    !- Density {kg/m3}
    850,                     !- Specific Heat {J/kg-K}
    0.9,                     !- Thermal Absorptance
    0.7,                     !- Solar Absorptance
    0.7;                     !- Visible Absorptance

  Material,
    Spruce,                  !- Name
    Rough,                   !- Roughness
    0.012,                   !- Thickness {m}
    0.09,                    !- Conductivity {W/m-K}
    455,                     !- Density {kg/m3}
    1500,                    !- Specific Heat {J/kg-K}
    0.9,                     !- Thermal Absorptance
    0.7,                     !- Solar Absorptance
    0.7;                     !- Visible Absorptance

  Material,
    Plywood,                 !- Name
    Rough,                   !- Roughness
    0.025,                   !- Thickness {m}
    0.14,                    !- Conductivity {W/m-K}
    530,                     !- Density {kg/m3}
    1880,                    !- Specific Heat {J/kg-K}
    0.9,                     !- Thermal Absorptance
    0.7,                     !- Solar Absorptance
    0.7;                     !- Visible Absorptance

  Material,
    Cellulose ins,           !- Name
    Rough,                   !- Roughness
    0.066,                   !- Thickness {m}
    0.04,                    !- Conductivity {W/m-K}
    55,                      !- Density {kg/m3}
    1880,                    !- Specific Heat {J/kg-K}
    0.9,                     !- Thermal Absorptance
    0.7,                     !- Solar Absorptance
    0.7;                     !- Visible Absorptance

  Material,
    Glass Fibre ins,         !- Name
    Rough,                   !- Roughness
    1.003,                   !- Thickness {m}
    0.04,                    !- Conductivity {W/m-K}
    80,                      !- Density {kg/m3}
    840,                     !- Specific Heat {J/kg-K}
    0.9,                     !- Thermal Absorptance
    0.7,                     !- Solar Absorptance
    0.7;                     !- Visible Absorptance

!-   ===========  ALL OBJECTS IN CLASS: WINDOWMATERIAL:GLAZING ===========

  WindowMaterial:Glazing,
    Glass,                   !- Name
    SpectralAverage,         !- Optical Data Type
    ,                        !- Window Glass Spectral Data Set Name
    0.003175,                !- Thickness {m}
    0.86156,                 !- Solar Transmittance at Normal Incidence
    0.07846,                 !- Front Side Solar Reflectance at Normal Incidence
    0.07846,                 !- Back Side Solar Reflectance at Normal Incidence
    0.91325,                 !- Visible Transmittance at Normal Incidence
    0.082,                   !- Front Side Visible Reflectance at Normal Incidence
    0.082,                   !- Back Side Visible Reflectance at Normal Incidence
    0,                       !- Infrared Transmittance at Normal Incidence
    0.84,                    !- Front Side Infrared Hemispherical Emissivity
    0.84,                    !- Back Side Infrared Hemispherical Emissivity
    1.06;                    !- Conductivity {W/m-K}

!-   ===========  ALL OBJECTS IN CLASS: WINDOWMATERIAL:GAS ===========

  WindowMaterial:Gas,
    Air,                     !- Name
    Air,                     !- Gas Type
    0.013;                   !- Thickness {m}

!-   ===========  ALL OBJECTS IN CLASS: MATERIALPROPERTY:HEATANDMOISTURETRANSFER:SETTINGS ===========

  MaterialProperty:HeatAndMoistureTransfer:Settings,
    Concrete,                !- Material Name
    0.76,                    !- Porosity {m3/m3}
    0.01;                    !- Initial Water Content Ratio {kg/kg}

  MaterialProperty:HeatAndMoistureTransfer:Settings,
    Spruce,                  !- Material Name
    0.73,                    !- Porosity {m3/m3}
    0.05;                    !- Initial Water Content Ratio {kg/kg}

  MaterialProperty:HeatAndMoistureTransfer:Settings,
    Plywood,                 !- Material Name
    0.5,                     !- Porosity {m3/m3}
    0.05;                    !- Initial Water Content Ratio {kg/kg}

  MaterialProperty:HeatAndMoistureTransfer:Settings,
    Cellulose ins,           !- Material Name
    0.95,                    !- Porosity {m3/m3}
    0.001;                   !- Initial Water Content Ratio {kg/kg}

  MaterialProperty:HeatAndMoistureTransfer:Settings,
    Glass Fibre ins,         !- Material Name
    0.95,                    !- Porosity {m3/m3}
    0.1;                     !- Initial Water Content Ratio {kg/kg}

!-   ===========  ALL OBJECTS IN CLASS: MATERIALPROPERTY:HEATANDMOISTURETRANSFER:SORPTIONISOTHERM ===========

  MaterialProperty:HeatAndMoistureTransfer:SorptionIsotherm,
    Cellulose ins,           !- Material Name
    5,                       !- Number of Isotherm Coordinates
    0.25,                    !- Relative Humidity Fraction 1 {dimensionless}
    2.365,                   !- Moisture Content 1 {kg/m3}
    0.44,                    !- Relative Humidity Fraction 2 {dimensionless}
    4.62,                    !- Moisture Content 2 {kg/m3}
    0.66,                    !- Relative Humidity Fraction 3 {dimensionless}
    6.655,                   !- Moisture Content 3 {kg/m3}
    0.86,                    !- Relative Humidity Fraction 4 {dimensionless}
    11.4125,                 !- Moisture Content 4 {kg/m3}
    1,                       !- Relative Humidity Fraction 5 {dimensionless}
    13;                      !- Moisture Content 5 {kg/m3}

  MaterialProperty:HeatAndMoistureTransfer:SorptionIsotherm,
    Glass Fibre ins,         !- Material Name
    6,                       !- Number of Isotherm Coordinates
    0.202,                   !- Relative Humidity Fraction 1 {dimensionless}
    0.748,                   !- Moisture Content 1 {kg/m3}
    0.4325,                  !- Relative Humidity Fraction 2 {dimensionless}
    1.04,                    !- Moisture Content 2 {kg/m3}
    0.6465,                  !- Relative Humidity Fraction 3 {dimensionless}
    1.24,                    !- Moisture Content 3 {kg/m3}
    0.8465,                  !- Relative Humidity Fraction 4 {dimensionless}
    1.56,                    !- Moisture Content 4 {kg/m3}
    0.948,                   !- Relative Humidity Fraction 5 {dimensionless}
    1.92,                    !- Moisture Content 5 {kg/m3}
    0.978,                   !- Relative Humidity Fraction 6 {dimensionless}
    2.72;                    !- Moisture Content 6 {kg/m3}

  MaterialProperty:HeatAndMoistureTransfer:SorptionIsotherm,
    Spruce,                  !- Material Name
    7,                       !- Number of Isotherm Coordinates
    0.205,                   !- Relative Humidity Fraction 1 {dimensionless}
    25.935,                  !- Moisture Content 1 {kg/m3}
    0.4465,                  !- Relative Humidity Fraction 2 {dimensionless}
    44.3625,                 !- Moisture Content 2 {kg/m3}
    0.6515,                  !- Relative Humidity Fraction 3 {dimensionless}
    61.99375,                !- Moisture Content 3 {kg/m3}
    0.6545,                  !- Relative Humidity Fraction 4 {dimensionless}
    61.99375,                !- Moisture Content 4 {kg/m3}
    0.83,                    !- Relative Humidity Fraction 5 {dimensionless}
    87.1325,                 !- Moisture Content 5 {kg/m3}
    0.9525,                  !- Relative Humidity Fraction 6 {dimensionless}
    119.665,                 !- Moisture Content 6 {kg/m3}
    0.956,                   !- Relative Humidity Fraction 7 {dimensionless}
    120.12;                  !- Moisture Content 7 {kg/m3}

  MaterialProperty:HeatAndMoistureTransfer:SorptionIsotherm,
    Plywood,                 !- Material Name
    12,                      !- Number of Isotherm Coordinates
    0.2015,                  !- Relative Humidity Fraction 1 {dimensionless}
    3.7125,                  !- Moisture Content 1 {kg/m3}
    0.203,                   !- Relative Humidity Fraction 2 {dimensionless}
    3.74,                    !- Moisture Content 2 {kg/m3}
    0.435,                   !- Relative Humidity Fraction 3 {dimensionless}
    5.8025,                  !- Moisture Content 3 {kg/m3}
    0.439,                   !- Relative Humidity Fraction 4 {dimensionless}
    5.83,                    !- Moisture Content 4 {kg/m3}
    0.6495,                  !- Relative Humidity Fraction 5 {dimensionless}
    7.7825,                  !- Moisture Content 5 {kg/m3}
    0.6515,                  !- Relative Humidity Fraction 6 {dimensionless}
    7.81,                    !- Moisture Content 6 {kg/m3}
    0.8215,                  !- Relative Humidity Fraction 7 {dimensionless}
    10.3675,                 !- Moisture Content 7 {kg/m3}
    0.825,                   !- Relative Humidity Fraction 8 {dimensionless}
    10.3675,                 !- Moisture Content 8 {kg/m3}
    0.9215,                  !- Relative Humidity Fraction 9 {dimensionless}
    13.1175,                 !- Moisture Content 9 {kg/m3}
    0.925,                   !- Relative Humidity Fraction 10 {dimensionless}
    13.1175,                 !- Moisture Content 10 {kg/m3}
    0.9575,                  !- Relative Humidity Fraction 11 {dimensionless}
    14.7125,                 !- Moisture Content 11 {kg/m3}
    0.9605,                  !- Relative Humidity Fraction 12 {dimensionless}
    15.345;                  !- Moisture Content 12 {kg/m3}

  MaterialProperty:HeatAndMoistureTransfer:SorptionIsotherm,
    Concrete,                !- Material Name
    10,                      !- Number of Isotherm Coordinates
    0.202,                   !- Relative Humidity Fraction 1 {dimensionless}
    19.665,                  !- Moisture Content 1 {kg/m3}
    0.2205,                  !- Relative Humidity Fraction 2 {dimensionless}
    22.31,                   !- Moisture Content 2 {kg/m3}
    0.449,                   !- Relative Humidity Fraction 3 {dimensionless}
    38.4675,                 !- Moisture Content 3 {kg/m3}
    0.454,                   !- Relative Humidity Fraction 4 {dimensionless}
    38.4675,                 !- Moisture Content 4 {kg/m3}
    0.6506,                  !- Relative Humidity Fraction 5 {dimensionless}
    54.165,                  !- Moisture Content 5 {kg/m3}
    0.655,                   !- Relative Humidity Fraction 6 {dimensionless}
    54.165,                  !- Moisture Content 6 {kg/m3}
    0.824,                   !- Relative Humidity Fraction 7 {dimensionless}
    72.565,                  !- Moisture Content 7 {kg/m3}
    0.8725,                  !- Relative Humidity Fraction 8 {dimensionless}
    85.1,                    !- Moisture Content 8 {kg/m3}
    0.924,                   !- Relative Humidity Fraction 9 {dimensionless}
    91.08,                   !- Moisture Content 9 {kg/m3}
    0.964,                   !- Relative Humidity Fraction 10 {dimensionless}
    100.28;                  !- Moisture Content 10 {kg/m3}

!-   ===========  ALL OBJECTS IN CLASS: MATERIALPROPERTY:HEATANDMOISTURETRANSFER:SUCTION ===========

  MaterialProperty:HeatAndMoistureTransfer:Suction,
    Concrete,                !- Material Name
    5,                       !- Number of Suction points
    0,                       !- Moisture Content 1 {kg/m3}
    0,                       !- Liquid Transport Coefficient 1 {m2/s}
    72,                      !- Moisture Content 2 {kg/m3}
    0.0000000000741,         !- Liquid Transport Coefficient 2 {m2/s}
    85,                      !- Moisture Content 3 {kg/m3}
    0.000000000253,          !- Liquid Transport Coefficient 3 {m2/s}
    100,                     !- Moisture Content 4 {kg/m3}
    0.00000000101,           !- Liquid Transport Coefficient 4 {m2/s}
    118,                     !- Moisture Content 5 {kg/m3}
    0.00000000128;           !- Liquid Transport Coefficient 5 {m2/s}

  MaterialProperty:HeatAndMoistureTransfer:Suction,
    Spruce,                  !- Material Name
    3,                       !- Number of Suction points
    0,                       !- Moisture Content 1 {kg/m3}
    0,                       !- Liquid Transport Coefficient 1 {m2/s}
    20,                      !- Moisture Content 2 {kg/m3}
    0.00000000000032,        !- Liquid Transport Coefficient 2 {m2/s}
    600,                     !- Moisture Content 3 {kg/m3}
    0.0000000000092;         !- Liquid Transport Coefficient 3 {m2/s}

  MaterialProperty:HeatAndMoistureTransfer:Suction,
    Plywood,                 !- Material Name
    1,                       !- Number of Suction points
    0,                       !- Moisture Content 1 {kg/m3}
    0;                       !- Liquid Transport Coefficient 1 {m2/s}

  MaterialProperty:HeatAndMoistureTransfer:Suction,