!-Generator IDFEditor 1.34
!-Option SortedOrder UseSpecialFormat
!-NOTE: All comments with '!-' are ignored by the IDFEditor and are generated automatically.
!-      Use '!' comments if they need to be retained when using the IDFEditor.
!-   ===========  ALL OBJECTS IN CLASS: VERSION ===========
! HeatRecoverywithStorageTank.idf
! Basic file description:  1 story building divided into 3 interior conditioned zones. Roof with no plenum.
!                          No ground contact with floor. Outdoor air is modulated based on occupancy and floor area.
!
! Highlights:              Test of the heat recovery loops with 2 generators and the engine driven chiller using the
!                          hot water tank to transfer heat to the hot water loop.  This file does not have a heat source
!                          to the hot water heater and only uses recovered heat.
!
!
! Simulation Location/Run: CHICAGO_IL_USA TMY2-94846, 2 design days and no run periods.
!
! Location:                Chicago, IL
!
! Design Days:             CHICAGO_IL_USA Annual Heating 99% Design Conditions DB, MaxDB= -17.3°C
!                          CHICAGO_IL_USA Annual Cooling 1% Design Conditions, MaxDB=  31.5°C MCWB=  23.0°C
!
! Run Period (Weather File): Winter 1/1 - 2/5, Summer 11/25 - 12/31, CHICAGO_IL_USA TMY2-94846
!
! Run Control:             No zone or system sizing, design day simulation.
!
! Building: Single floor rectangular L-shaped building 40 ft south wall, 40 ft west wall, zone height 10 feet.
!           There is a single window in West Zone's south wall. The walls are 1 in stucco over 4 in common brick
!           and gypboard. The roof is a built up roof with 1/2 in stone over 3/8 in felt over 1 in dense insulation
!           supported by 2 in heavy weight concrete. The window is single pane 3mm clear.
!           The window to wall ratio is approximately 0.07.
!
!           The building is oriented due north.
!
! Floor Area:        130.1 m2 (1403 ft2)
! Number of Stories: 1
!
! Zone Description Details:
!
!       (0,12.192,0)                 (9.144,12.192,0)
!           ________________________________
!          |                                |
!          |                                |
!          |                                |
!          |                                |
!          |           North                |
!          |                                |
!          |                                |
!          |             (6.096,6.096,0)    |
!          |________________________________|____________ (12.192,6.069,0)
!          | (0,6.096,0)        |    (9.144,6.096,0)     |
!          |                    |                        |
!          |                    |                        |
!          |                    |                        |
!          |       West         |         East           |    window = *
!          |                    |                        |
!          |                    |                        |
!          |                    |                        |
!          |___**************___|________________________|
!
!      (0,0,0)             (6.069,0,0)               (12.192,0,0)
!
! Internal gains description:     ZONE West      - lighting is 0 watts, equip is 2928.751 watts, 3 occupants
! Internal gains description:     ZONE North     - lighting is 878.6252 watts, equip is 2928.751 watts, 4 occupants
! Internal gains description:     ZONE East      - lighting is 1464.375 watts, equip is 1464.375 watts, 3 occupants
!
! Interzone Surfaces:             3 interzone surfaces (see diagram)
! Internal Mass:                  None
! People:                         10
! Lights:                         2343 W
! Equipment:                      7323 W
! Windows:                        1
! Detached Shading:               None
! Daylight:                       None
! Natural Ventilation:            None
! Compact Schedules:              Yes
! Solair Distribution:            FullInteriorAndExterior
!
! HVAC:                           3 zone terminal reheat system using single constant volume air loop. Central chilled
!                                 water coil scheduled to provide 16 C winter and 13 C summer supply air temperature.
!                                 Terminal reheat coils trim supply air temperature to meet zone thermostat set point.
!                                 Thermostat setting at 20 C in winter with 15 C set back temperature, 24 C in summer
!                                 with 30 C set back temperature. Cooling coil off in winter, reheat coil on all year.
!
!                                 GENERATOR:COMBUSTION TURBINE and GENERATOR:IC Engine coordinated through the
!                                 ELECTRIC LOAD CENTER:DISTRIBUTION and ELECTRIC LOAD CENTER:GENERATORS, along with the
!                                 Chiller:EngineDriven provide the waste heat for the heat recvoery loop.
!                                 The Electric hot water heater acts as a storage tank and recovers the heat from the Engine driven chiller and
!                                 the generators and stores that energy in the tank.  The water tank is also hooked up to the reheat coils and
!                                 provides the necessary heat to the system either through the recovered heat or the water heater can add
!                                 additional heat to make up the difference.  There is a scheduled domestic hot water demand on the tank which
!                                 increases during the day to put another significant load on the tank for the recovered heat.  The heat addition
!                                 part of the Hot Water heater has been disabled so those loads are met only by heat recovery.
!                                 The scheduled domestic hot water usage can be set to zero, if the user desires, so this could be used just as a
!                                 hot water storage tank.
!
! Zonal Equipment:                AirTerminal:SingleDuct:ConstantVolume:Reheat
! Central Air Handling Equipment: Yes
! System Equipment Autosize:      No (chilled water, condenser, and hot water loop volumes are autosized)
! Purchased Cooling:              No
! Purchased Heating:              No
! Purchased Chilled Water:        No
! Purchased Hot Water:            No
! Coils:                          Coil:Cooling:Water:DetailedGeometry
! Pumps:                          Pump:VariableSpeed
! Boilers:                        WATER HEATER:MIXED
! Chillers:                       CHILLER:ENGINEDRIVEN
!                                 PlantEquipmentOperation:CoolingLoad object.
! Towers:                         CoolingTower:SingleSpeed
! Generators:                     GENERATOR:COMBUSTION TURBINE, GENERATOR:IC ENGINE
!
! Results:
! Standard Reports:               None
! Timestep or Hourly Variables:   Timestep
! Time bins Report:               None
! HTML Report:                    None
! Environmental Emissions:        None
! Utility Tariffs:                None

  Version,24.1;

!-   ===========  ALL OBJECTS IN CLASS: SIMULATIONCONTROL ===========

  SimulationControl,
    NO,                      !- Do Zone Sizing Calculation
    NO,                      !- Do System Sizing Calculation
    NO,                      !- Do Plant Sizing Calculation
    Yes,                     !- Run Simulation for Sizing Periods
    No,                      !- Run Simulation for Weather File Run Periods
    No,                      !- Do HVAC Sizing Simulation for Sizing Periods
    1;                       !- Maximum Number of HVAC Sizing Simulation Passes

!-   ===========  ALL OBJECTS IN CLASS: BUILDING ===========

  Building,
    NONE,                    !- Name
    0,                       !- North Axis {deg}
    Suburbs,                 !- Terrain
    3.9999999E-02,           !- Loads Convergence Tolerance Value {W}
    0.4000000,               !- Temperature Convergence Tolerance Value {deltaC}
    FullInteriorAndExterior, !- Solar Distribution
    25,                      !- Maximum Number of Warmup Days
    6;                       !- Minimum Number of Warmup Days

!-   ===========  ALL OBJECTS IN CLASS: SURFACECONVECTIONALGORITHM:INSIDE ===========

  SurfaceConvectionAlgorithm:Inside,TARP;

!-   ===========  ALL OBJECTS IN CLASS: SURFACECONVECTIONALGORITHM:OUTSIDE ===========

  SurfaceConvectionAlgorithm:Outside,DOE-2;

!-   ===========  ALL OBJECTS IN CLASS: HEATBALANCEALGORITHM ===========

  HeatBalanceAlgorithm,ConductionTransferFunction;

!-   ===========  ALL OBJECTS IN CLASS: TIMESTEP ===========

  Timestep,6;

!-   ===========  ALL OBJECTS IN CLASS: SITE:LOCATION ===========

  Site:Location,
    CHICAGO_IL_USA TMY2-94846,  !- Name
    42.00,                   !- Latitude {deg}
    -87.88,                  !- Longitude {deg}
    -6.00,                   !- Time Zone {hr}
    190.00;                  !- Elevation {m}

!-   ===========  ALL OBJECTS IN CLASS: SIZINGPERIOD:DESIGNDAY ===========
! CHICAGO_IL_USA Annual Heating 99% Design Conditions DB, MaxDB= -17.3°C

  SizingPeriod:DesignDay,
    CHICAGO_IL_USA Annual Heating 99% Design Conditions DB,  !- Name
    1,                       !- Month
    21,                      !- Day of Month
    WinterDesignDay,         !- Day Type
    -17.3,                   !- Maximum Dry-Bulb Temperature {C}
    0.0,                     !- Daily Dry-Bulb Temperature Range {deltaC}
    ,                        !- Dry-Bulb Temperature Range Modifier Type
    ,                        !- Dry-Bulb Temperature Range Modifier Day Schedule Name
    Wetbulb,                 !- Humidity Condition Type
    -17.3,                   !- Wetbulb or DewPoint at Maximum Dry-Bulb {C}
    ,                        !- Humidity Condition Day Schedule Name
    ,                        !- Humidity Ratio at Maximum Dry-Bulb {kgWater/kgDryAir}
    ,                        !- Enthalpy at Maximum Dry-Bulb {J/kg}
    ,                        !- Daily Wet-Bulb Temperature Range {deltaC}
    99063.,                  !- Barometric Pressure {Pa}
    4.9,                     !- Wind Speed {m/s}
    270,                     !- Wind Direction {deg}
    No,                      !- Rain Indicator
    No,                      !- Snow Indicator
    No,                      !- Daylight Saving Time Indicator
    ASHRAEClearSky,          !- Solar Model Indicator
    ,                        !- Beam Solar Day Schedule Name
    ,                        !- Diffuse Solar Day Schedule Name
    ,                        !- ASHRAE Clear Sky Optical Depth for Beam Irradiance (taub) {dimensionless}
    ,                        !- ASHRAE Clear Sky Optical Depth for Diffuse Irradiance (taud) {dimensionless}
    0.0;                     !- Sky Clearness

! CHICAGO_IL_USA Annual Cooling 1% Design Conditions, MaxDB=  31.5°C MCWB=  23.0°C

  SizingPeriod:DesignDay,
    CHICAGO_IL_USA Annual Cooling 1% Design Conditions DB/MCWB,  !- Name
    7,                       !- Month
    21,                      !- Day of Month
    SummerDesignDay,         !- Day Type
    31.5,                    !- Maximum Dry-Bulb Temperature {C}
    10.7,                    !- Daily Dry-Bulb Temperature Range {deltaC}
    ,                        !- Dry-Bulb Temperature Range Modifier Type
    ,                        !- Dry-Bulb Temperature Range Modifier Day Schedule Name
    Wetbulb,                 !- Humidity Condition Type
    23.0,                    !- Wetbulb or DewPoint at Maximum Dry-Bulb {C}
    ,                        !- Humidity Condition Day Schedule Name
    ,                        !- Humidity Ratio at Maximum Dry-Bulb {kgWater/kgDryAir}
    ,                        !- Enthalpy at Maximum Dry-Bulb {J/kg}
    ,                        !- Daily Wet-Bulb Temperature Range {deltaC}
    99063.,                  !- Barometric Pressure {Pa}
    5.3,                     !- Wind Speed {m/s}
    230,                     !- Wind Direction {deg}
    No,                      !- Rain Indicator
    No,                      !- Snow Indicator
    No,                      !- Daylight Saving Time Indicator
    ASHRAEClearSky,          !- Solar Model Indicator
    ,                        !- Beam Solar Day Schedule Name
    ,                        !- Diffuse Solar Day Schedule Name
    ,                        !- ASHRAE Clear Sky Optical Depth for Beam Irradiance (taub) {dimensionless}
    ,                        !- ASHRAE Clear Sky Optical Depth for Diffuse Irradiance (taud) {dimensionless}
    1.0;                     !- Sky Clearness

!-   ===========  ALL OBJECTS IN CLASS: RUNPERIOD ===========

  RunPeriod,
    Run Period 1,            !- Name
    1,                       !- Begin Month
    1,                       !- Begin Day of Month
    ,                        !- Begin Year
    2,                       !- End Month
    5,                       !- End Day of Month
    ,                        !- End Year
    ,                        !- Day of Week for Start Day
    Yes,                     !- Use Weather File Holidays and Special Days
    Yes,                     !- Use Weather File Daylight Saving Period
    No,                      !- Apply Weekend Holiday Rule
    Yes,                     !- Use Weather File Rain Indicators
    Yes;                     !- Use Weather File Snow Indicators

  RunPeriod,
    Run Period 2,            !- Name
    11,                      !- Begin Month
    25,                      !- Begin Day of Month
    ,                        !- Begin Year
    12,                      !- End Month
    31,                      !- End Day of Month
    ,                        !- End Year
    ,                        !- Day of Week for Start Day
    Yes,                     !- Use Weather File Holidays and Special Days
    Yes,                     !- Use Weather File Daylight Saving Period
    No,                      !- Apply Weekend Holiday Rule
    Yes,                     !- Use Weather File Rain Indicators
    Yes;                     !- Use Weather File Snow Indicators

!-   ===========  ALL OBJECTS IN CLASS: SITE:GROUNDTEMPERATURE:BUILDINGSURFACE ===========

  Site:GroundTemperature:BuildingSurface,20.03,20.03,20.13,20.30,20.43,20.52,20.62,20.77,20.78,20.55,20.44,20.20;

!-   ===========  ALL OBJECTS IN CLASS: SCHEDULETYPELIMITS ===========

  ScheduleTypeLimits,
    Any Number;              !- Name

  ScheduleTypeLimits,
    Fraction,                !- Name
    0.0,                     !- Lower Limit Value
    1.0,                     !- Upper Limit Value
    CONTINUOUS;              !- Numeric Type

  ScheduleTypeLimits,
    Temperature,             !- Name
    -60,                     !- Lower Limit Value
    200,                     !- Upper Limit Value
    CONTINUOUS,              !- Numeric Type
    Temperature;             !- Unit Type

  ScheduleTypeLimits,
    Control Type,            !- Name
    0,                       !- Lower Limit Value
    4,                       !- Upper Limit Value
    DISCRETE;                !- Numeric Type

  ScheduleTypeLimits,
    On/Off,                  !- Name
    0,                       !- Lower Limit Value
    1,                       !- Upper Limit Value
    DISCRETE;                !- Numeric Type

!-   ===========  ALL OBJECTS IN CLASS: SCHEDULE:COMPACT ===========

  Schedule:Compact,
    HOT WATER AMBIENT TEMPERATURE SCHEDULE,  !- Name
    ANY NUMBER,              !- Schedule Type Limits Name
    Through: 12/31,          !- Field 1
    For: AllDays,            !- Field 2
    Until: 24:00,22.00;      !- Field 3

  Schedule:Compact,
    ACTIVITY SCH,            !- Name
    ANY NUMBER,              !- Schedule Type Limits Name
    Through: 12/31,          !- Field 1
    For: AllDays,            !- Field 2
    Until: 24:00,131.80;     !- Field 3

  Schedule:Compact,
    WORK EFF SCH,            !- Name
    ANY NUMBER,              !- Schedule Type Limits Name
    Through: 12/31,          !- Field 1
    For: AllDays,            !- Field 2
    Until: 24:00,0.00;       !- Field 3

  Schedule:Compact,
    CLOTHING SCH,            !- Name
    ANY NUMBER,              !- Schedule Type Limits Name
    Through: 12/31,          !- Field 1
    For: AllDays,            !- Field 2
    Until: 24:00,1.00;       !- Field 3

  Schedule:Compact,
    AIR VELO SCH,            !- Name
    ANY NUMBER,              !- Schedule Type Limits Name
    Through: 12/31,          !- Field 1
    For: AllDays,            !- Field 2
    Until: 24:00,0.14;       !- Field 3

  Schedule:Compact,
    BLDG SCH   1,            !- Name
    ANY NUMBER,              !- Schedule Type Limits Name
    Through: 12/31,          !- Field 1
    For: Weekdays,           !- Field 2
    Until: 6:00,0.00,        !- Field 3
    Until: 7:00,0.10,        !- Field 5
    Until: 8:00,0.50,        !- Field 7
    Until: 12:00,1.00,       !- Field 9
    Until: 13:00,0.50,       !- Field 11
    Until: 16:00,1.00,       !- Field 13
    Until: 17:00,0.50,       !- Field 15
    Until: 18:00,0.10,       !- Field 17
    Until: 24:00,0.00,       !- Field 19
    For: Weekends Holiday,   !- Field 21
    Until: 24:00,0.00,       !- Field 22
    For: SummerDesignDay,    !- Field 24
    Until: 6:00,0.00,        !- Field 25
    Until: 7:00,0.10,        !- Field 27
    Until: 8:00,0.50,        !- Field 29
    Until: 12:00,1.00,       !- Field 31
    Until: 13:00,0.50,       !- Field 33
    Until: 16:00,1.00,       !- Field 35
    Until: 17:00,0.50,       !- Field 37
    Until: 18:00,0.10,       !- Field 39
    Until: 24:00,0.00,       !- Field 41
    For: WinterDesignDay CustomDay1 CustomDay2, !- Field 43
    Until: 24:00,0.00;       !- Field 44

  Schedule:Compact,
    BLDG SCH   2,            !- Name
    ANY NUMBER,              !- Schedule Type Limits Name
    Through: 12/31,          !- Field 1
    For: Weekdays,           !- Field 2
    Until: 8:00,0.00,        !- Field 3
    Until: 18:00,1.00,       !- Field 5
    Until: 24:00,0.00,       !- Field 7
    For: Weekends Holiday,   !- Field 9
    Until: 24:00,0.00,       !- Field 10
    For: SummerDesignDay,    !- Field 12
    Until: 8:00,0.00,        !- Field 13
    Until: 18:00,1.00,       !- Field 15
    Until: 24:00,0.00,       !- Field 17
    For: WinterDesignDay CustomDay1 CustomDay2, !- Field 19
    Until: 24:00,0.00;       !- Field 20

  Schedule:Compact,
    BLDG SCH   3,            !- Name
    ANY NUMBER,              !- Schedule Type Limits Name
    Through: 12/31,          !- Field 1
    For: Weekdays,           !- Field 2
    Until: 6:00,5.00E-002,   !- Field 3
    Until: 7:00,0.20,        !- Field 5
    Until: 17:00,1.00,       !- Field 7
    Until: 18:00,0.50,       !- Field 9
    Until: 24:00,5.00E-002,  !- Field 11
    For: Weekends Holiday,   !- Field 13
    Until: 24:00,5.00E-002,  !- Field 14
    For: SummerDesignDay,    !- Field 16
    Until: 6:00,5.00E-002,   !- Field 17
    Until: 7:00,0.20,        !- Field 19
    Until: 17:00,1.00,       !- Field 21
    Until: 18:00,0.50,       !- Field 23
    Until: 24:00,5.00E-002,  !- Field 25
    For: WinterDesignDay CustomDay1 CustomDay2, !- Field 27
    Until: 24:00,5.00E-002;  !- Field 28

  Schedule:Compact,
    ON PEAK,                 !- Name
    FRACTION,                !- Schedule Type Limits Name
    Through: 12/31,          !- Field 1
    For: AllDays,            !- Field 2
    Until: 9:00,0.00,        !- Field 3
    Until: 18:00,1.00,       !- Field 5
    Until: 24:00,0.00;       !- Field 7

  Schedule:Compact,
    OFF PEAK,                !- Name
    FRACTION,                !- Schedule Type Limits Name
    Through: 12/31,          !- Field 1
    For: AllDays,            !- Field 2
    Until: 9:00,1.00,        !- Field 3
    Until: 18:00,0.00,       !- Field 5
    Until: 24:00,1.00;       !- Field 7

  Schedule:Compact,
    SEASONAL RESET SUPPLY AIR TEMP SCH,  !- Name
    TEMPERATURE,             !- Schedule Type Limits Name
    Through: 3/31,           !- Field 1
    For: AllDays,            !- Field 2
    Until: 24:00,16.00,      !- Field 3
    Through: 9/30,           !- Field 5
    For: AllDays,            !- Field 6
    Until: 24:00,13.00,      !- Field 7
    Through: 12/31,          !- Field 9
    For: AllDays,            !- Field 10
    Until: 24:00,16.00;      !- Field 11

  Schedule:Compact,
    FANANDCOILAVAILSCHED,    !- Name
    FRACTION,                !- Schedule Type Limits Name
    Through: 3/31,           !- Field 1
    For: AllDays,            !- Field 2
    Until: 24:00,1.00,       !- Field 3
    Through: 9/30,           !- Field 5
    For: Weekdays,           !- Field 6
    Until: 7:00,0.00,        !- Field 7
    Until: 17:00,1.00,       !- Field 9
    Until: 24:00,0.00,       !- Field 11
    For: Weekends Holiday,   !- Field 13
    Until: 24:00,0.00,       !- Field 14
    For: SummerDesignDay WinterDesignDay, !- Field 16
    Until: 7:00,0.00,        !- Field 17
    Until: 17:00,1.00,       !- Field 19
    Until: 24:00,0.00,       !- Field 21
    For: CustomDay1 CustomDay2, !- Field 23
    Until: 24:00,0.00,       !- Field 24
    Through: 12/31,          !- Field 26
    For: AllDays,            !- Field 27
    Until: 24:00,1.00;       !- Field 28

  Schedule:Compact,
    COOLINGCOILAVAILSCHED,   !- Name
    FRACTION,                !- Schedule Type Limits Name
    Through: 3/31,           !- Field 1
    For: AllDays,            !- Field 2
    Until: 24:00,0.00,       !- Field 3
    Through: 9/30,           !- Field 5
    For: Weekdays,           !- Field 6
    Until: 7:00,0.00,        !- Field 7
    Until: 17:00,1.00,       !- Field 9
    Until: 24:00,0.00,       !- Field 11
    For: Weekends Holiday,   !- Field 13
    Until: 24:00,0.00,       !- Field 14
    For: SummerDesignDay WinterDesignDay, !- Field 16
    Until: 7:00,0.00,        !- Field 17
    Until: 17:00,1.00,       !- Field 19
    Until: 24:00,0.00,       !- Field 21
    For: CustomDay1 CustomDay2, !- Field 23
    Until: 24:00,0.00,       !- Field 24
    Through: 12/31,          !- Field 26
    For: AllDays,            !- Field 27
    Until: 24:00,0.00;       !- Field 28

  Schedule:Compact,
    ON,                      !- Name
    ON/OFF,                  !- Schedule Type Limits Name
    Through: 12/31,          !- Field 1
    For: AllDays,            !- Field 2
    Until: 24:00,1.00;       !- Field 3

  Schedule:Compact,
    CW LOOP TEMP SCHEDULE,   !- Name
    TEMPERATURE,             !- Schedule Type Limits Name
    Through: 12/31,          !- Field 1
    For: AllDays,            !- Field 2
    Until: 24:00,6.67;       !- Field 3

  Schedule:Compact,
    HW LOOP TEMP SCHEDULE,   !- Name
    TEMPERATURE,             !- Schedule Type Limits Name
    Through: 3/31,           !- Field 1
    For: AllDays,            !- Field 2
    Until: 24:00,60.00,      !- Field 3
    Through: 9/30,           !- Field 5
    For: AllDays,            !- Field 6
    Until: 24:00,25.00,      !- Field 7
    Through: 12/31,          !- Field 9
    For: AllDays,            !- Field 10
    Until: 24:00,60.00;      !- Field 11

  Schedule:Compact,
    HEAT RECOVERY LOOP TEMP SCHEDULE,  !- Name
    TEMPERATURE,             !- Schedule Type Limits Name
    Through: 12/31,          !- Field 1
    For: AllDays,            !- Field 2
    Until: 24:00,25.00;      !- Field 3

  Schedule:Compact,
    HEATING SETPOINTS,       !- Name
    TEMPERATURE,             !- Schedule Type Limits Name
    Through: 12/31,          !- Field 1
    For: Weekdays weekends holiday, !- Field 2
    Until: 8:00,15.00,       !- Field 3
    Until: 18:00,20.00,      !- Field 5
    Until: 24:00,15.00,      !- Field 7
    For: SummerDesignDay,    !- Field 9
    Until: 24:00,20.00,      !- Field 10
    For: WinterDesignDay,    !- Field 12
    Until: 24:00,20.00,      !- Field 13
    For: CustomDay1 CustomDay2, !- Field 15
    Until: 8:00,15.00,       !- Field 16
    Until: 18:00,20.00,      !- Field 18
    Until: 24:00,15.00;      !- Field 20

  Schedule:Compact,
    COOLING SETPOINTS,       !- Name
    TEMPERATURE,             !- Schedule Type Limits Name
    Through: 12/31,          !- Field 1
    For: Weekdays weekends holiday, !- Field 2
    Until: 8:00,30.00,       !- Field 3
    Until: 18:00,24.00,      !- Field 5
    Until: 24:00,30.00,      !- Field 7
    For: SummerDesignDay,    !- Field 9
    Until: 24:00,20.00,      !- Field 10
    For: WinterDesignDay,    !- Field 12
    Until: 24:00,20.00,      !- Field 13
    For: CustomDay1 CustomDay2, !- Field 15
    Until: 8:00,30.00,       !- Field 16
    Until: 18:00,24.00,      !- Field 18
    Until: 24:00,30.00;      !- Field 20

  Schedule:Compact,
    DUAL ZONE CONTROL TYPE SCHED,  !- Name
    CONTROL TYPE,            !- Schedule Type Limits Name
    Through: 12/31,          !- Field 1
    For: AllDays,            !- Field 2
    Until: 24:00,4.00;       !- Field 3

  Schedule:Compact,
    DHW SUPPLY TEMP SCH,     !- Name
    ANY NUMBER,              !- Schedule Type Limits Name
    Through: 12/31,          !- Field 1
    For: AllDays,            !- Field 2
    Until: 24:00,20.00;      !- Field 3

  Schedule:Compact,
    DHW FLOW FRAC SCH,       !- Name
    ANY NUMBER,              !- Schedule Type Limits Name
    Through: 12/31,          !- Field 1
    For: AllDays,            !- Field 2
    Until: 6:00,0.00,        !- Field 3
    Until: 9:00,0.10,        !- Field 5
    Until: 10:00,0.20,       !- Field 7
    Until: 11:00,0.30,       !- Field 9
    Until: 12:00,0.50,       !- Field 11
    Until: 13:00,0.70,       !- Field 13
    Until: 14:00,0.90,       !- Field 15
    Until: 15:00,1.00,       !- Field 17
    Until: 16:00,0.70,       !- Field 19
    Until: 17:00,0.50,       !- Field 21
    Until: 18:00,0.20,       !- Field 23
    Until: 19:00,0.10,       !- Field 25
    Until: 24:00,0.00;       !- Field 27

!-   ===========  ALL OBJECTS IN CLASS: MATERIAL ===========

  Material,
    A1 - 1 IN STUCCO,        !- Name
    Smooth,                  !- Roughness
    2.5389841E-02,           !- Thickness {m}
    0.6918309,               !- Conductivity {W/m-K}
    1858.142,                !- Density {kg/m3}
    836.8000,                !- Specific Heat {J/kg-K}
    0.9000000,               !- Thermal Absorptance
    0.9200000,               !- Solar Absorptance
    0.9200000;               !- Visible Absorptance

  Material,
    C4 - 4 IN COMMON BRICK,  !- Name
    Rough,                   !- Roughness
    0.1014984,               !- Thickness {m}
    0.7264224,               !- Conductivity {W/m-K}
    1922.216,                !- Density {kg/m3}
    836.8000,                !- Specific Heat {J/kg-K}
    0.9000000,               !- Thermal Absorptance
    0.7600000,               !- Solar Absorptance
    0.7600000;               !- Visible Absorptance

  Material,
    E1 - 3 / 4 IN PLASTER OR GYP BOARD,  !- Name
    Smooth,                  !- Roughness
    1.9050000E-02,           !- Thickness {m}
    0.7264224,               !- Conductivity {W/m-K}
    1601.846,                !- Density {kg/m3}
    836.8000,                !- Specific Heat {J/kg-K}
    0.9000000,               !- Thermal Absorptance
    0.9200000,               !- Solar Absorptance
    0.9200000;               !- Visible Absorptance

  Material,
    C6 - 8 IN CLAY TILE,     !- Name
    Smooth,                  !- Roughness
    0.2033016,               !- Thickness {m}
    0.5707605,               !- Conductivity {W/m-K}
    1121.292,                !- Density {kg/m3}
    836.8000,                !- Specific Heat {J/kg-K}
    0.9000000,               !- Thermal Absorptance
    0.8200000,               !- Solar Absorptance
    0.8200000;               !- Visible Absorptance

  Material,
    C10 - 8 IN HW CONCRETE,  !- Name
    MediumRough,             !- Roughness
    0.2033016,               !- Thickness {m}
    1.729577,                !- Conductivity {W/m-K}
    2242.585,                !- Density {kg/m3}
    836.8000,                !- Specific Heat {J/kg-K}
    0.9000000,               !- Thermal Absorptance
    0.6500000,               !- Solar Absorptance
    0.6500000;               !- Visible Absorptance

  Material,
    E2 - 1 / 2 IN SLAG OR STONE,  !- Name
    Rough,                   !- Roughness
    1.2710161E-02,           !- Thickness {m}
    1.435549,                !- Conductivity {W/m-K}
    881.0155,                !- Density {kg/m3}
    1673.600,                !- Specific Heat {J/kg-K}
    0.9000000,               !- Thermal Absorptance
    0.5500000,               !- Solar Absorptance
    0.5500000;               !- Visible Absorptance

  Material,
    E3 - 3 / 8 IN FELT AND MEMBRANE,  !- Name
    Rough,                   !- Roughness
    9.5402403E-03,           !- Thickness {m}
    0.1902535,               !- Conductivity {W/m-K}
    1121.292,                !- Density {kg/m3}
    1673.600,                !- Specific Heat {J/kg-K}
    0.9000000,               !- Thermal Absorptance
    0.7500000,               !- Solar Absorptance
    0.7500000;               !- Visible Absorptance

  Material,
    B5 - 1 IN DENSE INSULATION,  !- Name
    VeryRough,               !- Roughness
    2.5389841E-02,           !- Thickness {m}
    4.3239430E-02,           !- Conductivity {W/m-K}
    91.30524,                !- Density {kg/m3}
    836.8000,                !- Specific Heat {J/kg-K}
    0.9000000,               !- Thermal Absorptance
    0.5000000,               !- Solar Absorptance
    0.5000000;               !- Visible Absorptance

  Material,
    C12 - 2 IN HW CONCRETE,  !- Name
    MediumRough,             !- Roughness
    5.0901599E-02,           !- Thickness {m}
    1.729577,                !- Conductivity {W/m-K}
    2242.585,                !- Density {kg/m3}
    836.8000,                !- Specific Heat {J/kg-K}
    0.9000000,               !- Thermal Absorptance
    0.6500000,               !- Solar Absorptance
    0.6500000;               !- Visible Absorptance
