!-Generator IDFEditor 1.34
!-Option SortedOrder UseSpecialFormat
!-NOTE: All comments with '!-' are ignored by the IDFEditor and are generated automatically.
!-      Use '!' comments if they need to be retained when using the IDFEditor.
!-   ===========  ALL OBJECTS IN CLASS: VERSION ===========
!
! HP_wICSSolarCollector.idf
!
! Basic file description:  1 story building divided into 3 interior conditioned zones. Roof with Attic Zone.
!
! Highlights:              Example of AirToAir Heat Pump With Integral-Collector-Storage (ICS) solar domestic hot
!                          water heater system. The hot water loop has two storage tanks to maximize the performance
!                          of the collector. The ICS collector are conected to the source side of one of the hot
!                          water tank, whcih has no electrical heating element. A thermostat and humidistat are used
!                          to control temperature and relative humidity of the control zone.
!
!
! Simulation Location/Run: Miami Intl Ap FL USA WMO=722020, 2 design days, 2 run periods.
!                          Run Control executes the run periods and design days. A Miami weather file is required.
!
! Location:                Miami, FL USA
!
! Design Days:             Miami Intl Ap FL USA Annual Heating 99.6%, MaxDB=8.7?C
!                          Miami Intl Ap FL USA Annual Cooling (DB=>MWB) .4%, MaxDB=33.2?C MWB=25.3?C
!
! Run Period (Weather File): Winter 1/14, Summer 7/7.
!
! Run Control:             No Zone or System sizing required. Simulation uses weather file for run periods.
!
! Building: Single floor rectangular L-shaped building 40 ft south wall, 40 ft west wall, zone height 10 feet.
!           There is a single window in the West zone south wall. The walls are 1 in stucco over 4 in common
!           brick and gypboard. The three zones are seperated from the attic zone by a ceiling with plywood,
!           cieling air gap, and gypboard. The roof is a built up of Asphalt Shingle and 1/2 in Plywood Siding.
!           The window is single pane 3mm clear. The window to wall ratio is approximately 0.07.
!
!           The building is oriented due north.
!
! Floor Area:        130.1 m2 (1403 ft2)
! Number of Stories: 1
!
! Zone Description Details:
!
!       (0,12.192,0)                 (9.144,12.192,0)
!           ________________________________
!          |                                |
!          |                                |
!          |                                |
!          |                                |
!          |           North                |
!          |                                |
!          |                                |
!          |             (6.096,6.096,0)    |
!          |________________________________|____________ (12.192,6.069,0)
!          | (0,6.096,0)        |    (9.144,6.096,0)     |
!          |                    |                        |
!          |                    |                        |
!          |                    |                        |
!          |        West        |         East           |    window = *
!          |                    |                        |
!          |                    |                        |
!          |                    |                        |
!          |___**************___|________________________|
!
!      (0,0,0)             (6.069,0,0)               (12.192,0,0)
!
! Internal gains description:     ZONE West  - lighting is 0 watts, equip is 2928.751 watts, 3 occupants
! Internal gains description:     ZONE North - lighting is 878.6252 watts, equip is 2928.751 watts, 4 occupants
! Internal gains description:     ZONE East  - lighting is 1464.375 watts, equip is 1464.375 watts, 3 occupants
!
! Interzone Surfaces:             3 interzone surfaces (see diagram)
! Internal Mass:                  None
! People:                         10
! Lights:                         2343 W
! Equipment:                      7323 W
! Windows:                        1 - single pane clear 3mm glass
! Detached Shading:               None
! Daylight:                       None
! Natural Ventilation:            None
! Compact Schedules:              Yes
! Solair Distribution:            FullInteriorAndExterior
!
! HVAC:                           3 zone central system using single air loop. DX cooling coil, DX heating coil and hot
!                                 water coil supplemental heating coil. A hot water plant loop provides the hot water.
!                                 Dual setpoint thermostat with setback temperature. Cooling setpoint is 24 C in the
!                                 daytime with 30 C set up temperature. Heating setpoint is 21 C in the daytime with
!                                 18 C set back temperature. Humidistat is set at 50% all year. An economizer is used
!                                 to provide free cooling when available. The economizer uses a 25 C maximum and 14 C
!                                 minimum outdoor temperature limit. In addition, a maximum outdoor dew point
!                                 temperature of 13.5 C and an electronic enthalpy curve (A) is used to further
!                                 limit economizer operation. A high humidity control option also increases the amount
!                                 of outdoor air when indoor relative humidities are above the humidistat set point
!                                 and the outdoor air humidity ratio is lower than the indoor humidity ratio.
!                                 Fresh air is also introduced each weekday from 7:00 am to 7:30 am to purge contaminants
!                                 from the building interior.
!
! Zonal Equipment:                AirTerminal:SingleDuct:Uncontrolled
! Central Air Handling Equipment: Yes
! System Equipment Autosize:      No
! Purchased Cooling:              No
! Purchased Heating:              No
! Purchased Chilled Water:        No
! Purchased Hot Water:            No
! HVAC System:                    AirLoopHVAC:UnitaryHeatPump:AirToAir
! Coils:                          Coil:Cooling:DX:SingleSpeed, Coil:Heating:Water
! Pumps:                          Collector Circ Pump,Pump:VariableSpeed
! Boilers:                        None
! Chillers:                       None
! Towers:                         None
! Solar Collectors:               SolarCollector:IntegralCollectorStorage
!
! Results:
! Standard Reports:               None
! Timestep or Hourly Variables:   Timestep
! Time bins Report:               None
! HTML Report:                    None
! Environmental Emissions:        None
! Utility Tariffs:                None

  Version,24.1;

!-   ===========  ALL OBJECTS IN CLASS: SIMULATIONCONTROL ===========

  SimulationControl,
    No,                      !- Do Zone Sizing Calculation
    No,                      !- Do System Sizing Calculation
    No,                      !- Do Plant Sizing Calculation
    yes,                     !- Run Simulation for Sizing Periods
    Yes,                     !- Run Simulation for Weather File Run Periods
    No,                      !- Do HVAC Sizing Simulation for Sizing Periods
    1;                       !- Maximum Number of HVAC Sizing Simulation Passes

!-   ===========  ALL OBJECTS IN CLASS: BUILDING ===========

  Building,
    NONE,                    !- Name
    0,                       !- North Axis {deg}
    Suburbs,                 !- Terrain
    3.9999999E-02,           !- Loads Convergence Tolerance Value {W}
    0.4000000,               !- Temperature Convergence Tolerance Value {deltaC}
    FullInteriorAndExterior, !- Solar Distribution
    25,                      !- Maximum Number of Warmup Days
    6;                       !- Minimum Number of Warmup Days

!-   ===========  ALL OBJECTS IN CLASS: SURFACECONVECTIONALGORITHM:INSIDE ===========

  SurfaceConvectionAlgorithm:Inside,TARP;

!-   ===========  ALL OBJECTS IN CLASS: SURFACECONVECTIONALGORITHM:OUTSIDE ===========

  SurfaceConvectionAlgorithm:Outside,DOE-2;

!-   ===========  ALL OBJECTS IN CLASS: HEATBALANCEALGORITHM ===========

  HeatBalanceAlgorithm,ConductionTransferFunction;

!-   ===========  ALL OBJECTS IN CLASS: TIMESTEP ===========

  Timestep,6;

!-   ===========  ALL OBJECTS IN CLASS: SITE:LOCATION ===========
!-   ===========  ALL OBJECTS IN CLASS: SITE:LOCATION ===========
 !  Data Source=ASHRAE 2009 Annual Design Conditions

  Site:Location,
    Miami Intl Ap FL USA WMO=722020,  !- Name
    25.82,                   !- Latitude {deg}
    -80.3,                   !- Longitude {deg}
    -5.0,                    !- Time Zone {hr}
    11.00;                   !- Elevation {m}

 ! Miami Intl Ap FL USA Annual Heating Design Conditions Wind Speed=3.8m/s Wind Dir=340
 ! Coldest Month=January
 ! Miami Intl Ap FL USA Annual Heating 99.6%, MaxDB=8.7?C

  SizingPeriod:DesignDay,
    Miami Intl Ap Ann Htg 99.6% Condns DB,  !- Name
    1,                       !- Month
    21,                      !- Day of Month
    WinterDesignDay,         !- Day Type
    8.7,                     !- Maximum Dry-Bulb Temperature {C}
    0.0,                     !- Daily Dry-Bulb Temperature Range {deltaC}
    ,                        !- Dry-Bulb Temperature Range Modifier Type
    ,                        !- Dry-Bulb Temperature Range Modifier Day Schedule Name
    Wetbulb,                 !- Humidity Condition Type
    8.7,                     !- Wetbulb or DewPoint at Maximum Dry-Bulb {C}
    ,                        !- Humidity Condition Day Schedule Name
    ,                        !- Humidity Ratio at Maximum Dry-Bulb {kgWater/kgDryAir}
    ,                        !- Enthalpy at Maximum Dry-Bulb {J/kg}
    ,                        !- Daily Wet-Bulb Temperature Range {deltaC}
    101217.,                 !- Barometric Pressure {Pa}
    3.8,                     !- Wind Speed {m/s}
    340,                     !- Wind Direction {deg}
    No,                      !- Rain Indicator
    No,                      !- Snow Indicator
    No,                      !- Daylight Saving Time Indicator
    ASHRAEClearSky,          !- Solar Model Indicator
    ,                        !- Beam Solar Day Schedule Name
    ,                        !- Diffuse Solar Day Schedule Name
    ,                        !- ASHRAE Clear Sky Optical Depth for Beam Irradiance (taub) {dimensionless}
    ,                        !- ASHRAE Clear Sky Optical Depth for Diffuse Irradiance (taud) {dimensionless}
    0.00;                    !- Sky Clearness

 ! Miami Intl Ap Annual Cooling Design Conditions Wind Speed=4.5m/s Wind Dir=140
 ! Hottest Month=July
 ! Miami Intl Ap FL USA Annual Cooling (DB=>MWB) .4%, MaxDB=33.2?C MWB=25.3?C

  SizingPeriod:DesignDay,
    Miami Intl Ap Ann Clg .4% Condns DB=>MWB,  !- Name
    7,                       !- Month
    21,                      !- Day of Month
    SummerDesignDay,         !- Day Type
    33.2,                    !- Maximum Dry-Bulb Temperature {C}
    6.7,                     !- Daily Dry-Bulb Temperature Range {deltaC}
    ,                        !- Dry-Bulb Temperature Range Modifier Type
    ,                        !- Dry-Bulb Temperature Range Modifier Day Schedule Name
    Wetbulb,                 !- Humidity Condition Type
    25.3,                    !- Wetbulb or DewPoint at Maximum Dry-Bulb {C}
    ,                        !- Humidity Condition Day Schedule Name
    ,                        !- Humidity Ratio at Maximum Dry-Bulb {kgWater/kgDryAir}
    ,                        !- Enthalpy at Maximum Dry-Bulb {J/kg}
    ,                        !- Daily Wet-Bulb Temperature Range {deltaC}
    101217.,                 !- Barometric Pressure {Pa}
    4.5,                     !- Wind Speed {m/s}
    140,                     !- Wind Direction {deg}
    No,                      !- Rain Indicator
    No,                      !- Snow Indicator
    No,                      !- Daylight Saving Time Indicator
    ASHRAEClearSky,          !- Solar Model Indicator
    ,                        !- Beam Solar Day Schedule Name
    ,                        !- Diffuse Solar Day Schedule Name
    ,                        !- ASHRAE Clear Sky Optical Depth for Beam Irradiance (taub) {dimensionless}
    ,                        !- ASHRAE Clear Sky Optical Depth for Diffuse Irradiance (taud) {dimensionless}
    1.00;                    !- Sky Clearness

!-   ===========  ALL OBJECTS IN CLASS: RUNPERIOD ===========

  RunPeriod,
    Run Period 1,            !- Name
    1,                       !- Begin Month
    21,                      !- Begin Day of Month
    ,                        !- Begin Year
    1,                       !- End Month
    21,                      !- End Day of Month
    ,                        !- End Year
    ,                        !- Day of Week for Start Day
    No,                      !- Use Weather File Holidays and Special Days
    No,                      !- Use Weather File Daylight Saving Period
    No,                      !- Apply Weekend Holiday Rule
    No,                      !- Use Weather File Rain Indicators
    No;                      !- Use Weather File Snow Indicators

  RunPeriod,
    Run Period 2,            !- Name
    7,                       !- Begin Month
    21,                      !- Begin Day of Month
    ,                        !- Begin Year
    7,                       !- End Month
    21,                      !- End Day of Month
    ,                        !- End Year
    ,                        !- Day of Week for Start Day
    No,                      !- Use Weather File Holidays and Special Days
    No,                      !- Use Weather File Daylight Saving Period
    No,                      !- Apply Weekend Holiday Rule
    No,                      !- Use Weather File Rain Indicators
    No;                      !- Use Weather File Snow Indicators

!-   ===========  ALL OBJECTS IN CLASS: RUNPERIODCONTROL:DAYLIGHTSAVINGTIME ===========
!  WMO=722020 Time Zone=NAE        (GMT-05:00) Eastern Time (US & Canada)
!  Data Source=ASHRAE 2005 Annual Design Conditions

  RunPeriodControl:DaylightSavingTime,
    1st Sunday in April,     !- Start Date
    Last Sunday in October;  !- End Date

!-   ===========  ALL OBJECTS IN CLASS: SITE:GROUNDTEMPERATURE:BUILDINGSURFACE ===========

  Site:GroundTemperature:BuildingSurface,20.03,20.03,20.13,20.30,20.43,20.52,20.62,20.77,20.78,20.55,20.44,20.20;

!-   ===========  ALL OBJECTS IN CLASS: SCHEDULETYPELIMITS ===========

  ScheduleTypeLimits,
    Any Number;              !- Name

  ScheduleTypeLimits,
    Fraction,                !- Name
    0.0,                     !- Lower Limit Value
    1.0,                     !- Upper Limit Value
    CONTINUOUS;              !- Numeric Type

  ScheduleTypeLimits,
    Temperature,             !- Name
    -60,                     !- Lower Limit Value
    200,                     !- Upper Limit Value
    CONTINUOUS,              !- Numeric Type
    Temperature;             !- Unit Type

  ScheduleTypeLimits,
    Control Type,            !- Name
    0,                       !- Lower Limit Value
    4,                       !- Upper Limit Value
    DISCRETE;                !- Numeric Type

  ScheduleTypeLimits,
    On/Off,                  !- Name
    0,                       !- Lower Limit Value
    1,                       !- Upper Limit Value
    DISCRETE;                !- Numeric Type

  ScheduleTypeLimits,
    Humidity,                !- Name
    0,                       !- Lower Limit Value
    100,                     !- Upper Limit Value
    CONTINUOUS;              !- Numeric Type

!-   ===========  ALL OBJECTS IN CLASS: SCHEDULE:COMPACT ===========

  Schedule:Compact,
    Activity Sch,            !- Name
    Any Number,              !- Schedule Type Limits Name
    Through: 12/31,          !- Field 1
    For: AllDays,            !- Field 2
    Until: 24:00,131.8;      !- Field 3

  Schedule:Compact,
    Work Eff Sch,            !- Name
    Any Number,              !- Schedule Type Limits Name
    Through: 12/31,          !- Field 1
    For: AllDays,            !- Field 2
    Until: 24:00,0.0;        !- Field 3

  Schedule:Compact,
    Clothing Sch,            !- Name
    Any Number,              !- Schedule Type Limits Name
    Through: 12/31,          !- Field 1
    For: AllDays,            !- Field 2
    Until: 24:00,1.0;        !- Field 3

  Schedule:Compact,
    Air Velo Sch,            !- Name
    Any Number,              !- Schedule Type Limits Name
    Through: 12/31,          !- Field 1
    For: AllDays,            !- Field 2
    Until: 24:00,0.137;      !- Field 3

  Schedule:Compact,
    OFFICE OCCUPANCY,        !- Name
    Fraction,                !- Schedule Type Limits Name
    Through: 12/31,          !- Field 1
    For: WeekDays SummerDesignDay, !- Field 2
    Until: 7:00,0.0,         !- Field 3
    Until: 8:00,0.30,        !- Field 5
    Until: 12:00,1.00,       !- Field 7
    Until: 13:00,0.50,       !- Field 9
    Until: 16:00,1.00,       !- Field 11
    Until: 17:00,0.50,       !- Field 13
    Until: 18:00,0.10,       !- Field 15
    Until: 24:00,0.0,        !- Field 17
    For: AllOtherDays,       !- Field 19
    Until: 24:00,0.0;        !- Field 20

  Schedule:Compact,
    INTERMITTENT,            !- Name
    Fraction,                !- Schedule Type Limits Name
    Through: 12/31,          !- Field 1
    For: WeekDays SummerDesignDay, !- Field 2
    Until: 8:00,0.0,         !- Field 3
    Until: 18:00,1.00,       !- Field 5
    Until: 24:00,0.0,        !- Field 7
    For: AllOtherDays,       !- Field 9
    Until: 24:00,0.0;        !- Field 10

  Schedule:Compact,
    OFFICE LIGHTING,         !- Name
    Fraction,                !- Schedule Type Limits Name
    Through: 12/31,          !- Field 1
    For: WeekDays SummerDesignDay, !- Field 2
    Until: 6:00,0.05,        !- Field 3
    Until: 7:00,0.20,        !- Field 5
    Until: 17:00,1.00,       !- Field 7
    Until: 18:00,0.50,       !- Field 9
    Until: 24:00,0.05,       !- Field 11
    For: AllOtherDays,       !- Field 13
    Until: 24:00,0.05;       !- Field 14

  Schedule:Compact,
    FanAndCoilAvailSched,    !- Name
    Fraction,                !- Schedule Type Limits Name
    Through: 12/31,          !- Field 1
    For: AllDays,            !- Field 2
    Until: 24:00,1.0;        !- Field 3

  Schedule:Compact,
    OAFractionSched,         !- Name
    Fraction,                !- Schedule Type Limits Name
    Through: 12/31,          !- Field 1
    For: AllDays,            !- Field 2
    Until: 7:00,0.05,        !- Field 3
    Until: 18:00,1.0,        !- Field 5
    Until: 24:00,0.05;       !- Field 7

  Schedule:Compact,
    OutdoorAirAvailSched,    !- Name
    Fraction,                !- Schedule Type Limits Name
    Through: 3/31,           !- Field 1
    For: WeekDays,           !- Field 2
    Until: 24:00,1.0,        !- Field 3
    For: AllOtherDays,       !- Field 5
    Until: 24:00,0.0,        !- Field 6
    Through: 9/30,           !- Field 8
    For: WeekDays SummerDesignDay, !- Field 9
    Until: 7:00,0.0,         !- Field 10
    Until: 18:00,1.0,        !- Field 12
    Until: 24:00,0.0,        !- Field 14
    For: AllOtherDays,       !- Field 16
    Until: 24:00,0.0,        !- Field 17
    Through: 12/31,          !- Field 19
    For: AllDays,            !- Field 20
    Until: 24:00,1.0;        !- Field 21

  Schedule:Compact,
    Heating Setpoints,       !- Name
    Temperature,             !- Schedule Type Limits Name
    Through: 12/31,          !- Field 1
    For: AllDays,            !- Field 2
    Until:  7:00,18.0,       !- Field 3
    Until: 18:00,21.0,       !- Field 5
    Until: 24:00,18.0;       !- Field 7

  Schedule:Compact,
    Cooling Setpoints,       !- Name
    Temperature,             !- Schedule Type Limits Name
    Through: 12/31,          !- Field 1
    For: AllDays,            !- Field 2
    Until:  7:00,30.0,       !- Field 3
    Until: 18:00,24.0,       !- Field 5
    Until: 24:00,30.0;       !- Field 7

  Schedule:Compact,
    Zone Control Type Sched, !- Name
    Control Type,            !- Schedule Type Limits Name
    Through: 12/31,          !- Field 1
    For: AllDays,            !- Field 2
    Until: 24:00,4;          !- Field 3

  Schedule:Compact,
    Seasonal Relative Humidity Sch,  !- Name
    Humidity,                !- Schedule Type Limits Name
    Through: 12/31,          !- Field 1
    For: AllDays,            !- Field 2
    Until: 24:00,50.0;       !- Field 3

  Schedule:Compact,
    ContinuousFanSchedule,   !- Name
    Any Number,              !- Schedule Type Limits Name
    Through: 12/31,          !- Field 1
    For: AllDays,            !- Field 2
    Until: 24:00,1.0;        !- Field 3

  Schedule:Compact,
    TimeOfDayEconomizerSch,  !- Name
    Any Number,              !- Schedule Type Limits Name
    Through: 12/31,          !- Field 1
    For: WeekDays,           !- Field 2
    Until: 7:00,0,           !- Field 3
    Until: 7:30,1,           !- Field 5
    Until: 24:00,0,          !- Field 7
    For: AllOtherDays,       !- Field 9
    Until: 24:00,0;          !- Field 10

!-   ===========  ALL OBJECTS IN CLASS: MATERIAL ===========

  Material,
    A1 - 1 IN STUCCO,        !- Name
    Smooth,                  !- Roughness
    2.5389841E-02,           !- Thickness {m}
    0.6918309,               !- Conductivity {W/m-K}
    1858.142,                !- Density {kg/m3}
    836.8000,                !- Specific Heat {J/kg-K}
    0.9000000,               !- Thermal Absorptance
    0.9200000,               !- Solar Absorptance
    0.9200000;               !- Visible Absorptance

  Material,
    C4 - 4 IN COMMON BRICK,  !- Name
    Rough,                   !- Roughness
    0.1014984,               !- Thickness {m}
    0.7264224,               !- Conductivity {W/m-K}
    1922.216,                !- Density {kg/m3}
    836.8000,                !- Specific Heat {J/kg-K}
    0.9000000,               !- Thermal Absorptance
    0.7600000,               !- Solar Absorptance
    0.7600000;               !- Visible Absorptance

  Material,
    E1 - 3 / 4 IN PLASTER OR GYP BOARD,  !- Name
    Smooth,                  !- Roughness
    1.9050000E-02,           !- Thickness {m}
    0.7264224,               !- Conductivity {W/m-K}
    1601.846,                !- Density {kg/m3}
    836.8000,                !- Specific Heat {J/kg-K}
    0.9000000,               !- Thermal Absorptance
    0.9200000,               !- Solar Absorptance
    0.9200000;               !- Visible Absorptance

  Material,
    C6 - 8 IN CLAY TILE,     !- Name
    Smooth,                  !- Roughness
    0.2033016,               !- Thickness {m}
    0.5707605,               !- Conductivity {W/m-K}
    1121.292,                !- Density {kg/m3}
    836.8000,                !- Specific Heat {J/kg-K}
    0.9000000,               !- Thermal Absorptance
    0.8200000,               !- Solar Absorptance
    0.8200000;               !- Visible Absorptance

  Material,
    C10 - 8 IN HW CONCRETE,  !- Name
    MediumRough,             !- Roughness
    0.2033016,               !- Thickness {m}
    1.729577,                !- Conductivity {W/m-K}
    2242.585,                !- Density {kg/m3}
    836.8000,                !- Specific Heat {J/kg-K}
    0.9000000,               !- Thermal Absorptance
    0.6500000,               !- Solar Absorptance
    0.6500000;               !- Visible Absorptance

  Material,
    E2 - 1 / 2 IN SLAG OR STONE,  !- Name
    Rough,                   !- Roughness
    1.2710161E-02,           !- Thickness {m}
    1.435549,                !- Conductivity {W/m-K}
    881.0155,                !- Density {kg/m3}
    1673.600,                !- Specific Heat {J/kg-K}
    0.9000000,               !- Thermal Absorptance
    0.5500000,               !- Solar Absorptance
    0.5500000;               !- Visible Absorptance

  Material,
    E3 - 3 / 8 IN FELT AND MEMBRANE,  !- Name
    Rough,                   !- Roughness
    9.5402403E-03,           !- Thickness {m}
    0.1902535,               !- Conductivity {W/m-K}
    1121.292,                !- Density {kg/m3}
    1673.600,                !- Specific Heat {J/kg-K}
    0.9000000,               !- Thermal Absorptance
    0.7500000,               !- Solar Absorptance
    0.7500000;               !- Visible Absorptance

  Material,
    B5 - 1 IN DENSE INSULATION,  !- Name
    VeryRough,               !- Roughness
    2.5389841E-02,           !- Thickness {m}
    4.3239430E-02,           !- Conductivity {W/m-K}
    91.30524,                !- Density {kg/m3}
    836.8000,                !- Specific Heat {J/kg-K}
    0.9000000,               !- Thermal Absorptance
    0.5000000,               !- Solar Absorptance
    0.5000000;               !- Visible Absorptance

  Material,
    C12 - 2 IN HW CONCRETE,  !- Name
    MediumRough,             !- Roughness
    5.0901599E-02,           !- Thickness {m}
    1.729577,                !- Conductivity {W/m-K}
    2242.585,                !- Density {kg/m3}
    836.8000,                !- Specific Heat {J/kg-K}
    0.9000000,               !- Thermal Absorptance
    0.6500000,               !- Solar Absorptance
    0.6500000;               !- Visible Absorptance

  Material:AirGap,
    E4 - CEILING AIRSPACE,   !- Name
    0.1762280;               !- Thermal Resistance {m2-K/W}

! Asphalt Shingle and Siding

  Material:NoMass,
    AR02,                    !- Name
    VeryRough,               !- Roughness
    7.8000002E-02,           !- Thermal Resistance {m2-K/W}
    0.9000000,               !- Thermal Absorptance
    0.7000000,               !- Solar Absorptance
    0.7000000;               !- Visible Absorptance

! Plywood1/2 in

  Material,
    PW03,                    !- Name
    MediumSmooth,            !- Roughness
    1.2700000E-02,           !- Thickness {m}
    0.1150000,               !- Conductivity {W/m-K}
    545.0000,                !- Density {kg/m3}
    1213.000,                !- Specific Heat {J/kg-K}
    0.9000000,               !- Thermal Absorptance
    0.7800000,               !- Solar Absorptance
    0.7800000;               !- Visible Absorptance

!-   ===========  ALL OBJECTS IN CLASS: WINDOWMATERIAL:GLAZING ===========

  WindowMaterial:Glazing,
    WIN-LAY-GLASS-LIGHT,     !- Name
    SpectralAverage,         !- Optical Data Type
    ,                        !- Window Glass Spectral Data Set Name
    0.003,                   !- Thickness {m}
    0.90,                    !- Solar Transmittance at Normal Incidence
    0.031,                   !- Front Side Solar Reflectance at Normal Incidence
    0.031,                   !- Back Side Solar Reflectance at Normal Incidence
    0.90,                    !- Visible Transmittance at Normal Incidence
    0.05,                    !- Front Side Visible Reflectance at Normal Incidence
    0.05,                    !- Back Side Visible Reflectance at Normal Incidence
    0.0,                     !- Infrared Transmittance at Normal Incidence
    0.84,                    !- Front Side Infrared Hemispherical Emissivity
    0.84,                    !- Back Side Infrared Hemispherical Emissivity
    0.9;                     !- Conductivity {W/m-K}

!-   ===========  ALL OBJECTS IN CLASS: CONSTRUCTION ===========

  Construction,
    EXTWALL80,               !- Name
    A1 - 1 IN STUCCO,        !- Outside Layer
    C4 - 4 IN COMMON BRICK,  !- Layer 2
    E1 - 3 / 4 IN PLASTER OR GYP BOARD;  !- Layer 3

  Construction,
    PARTITION06,             !- Name
    E1 - 3 / 4 IN PLASTER OR GYP BOARD,  !- Outside Layer
    C6 - 8 IN CLAY TILE,     !- Layer 2
    E1 - 3 / 4 IN PLASTER OR GYP BOARD;  !- Layer 3

  Construction,
    FLOOR SLAB 8 IN,         !- Name
    C10 - 8 IN HW CONCRETE;  !- Outside Layer

  Construction,
    CEILING01,               !- Name
    PW03,                    !- Outside Layer
    E4 - CEILING AIRSPACE,   !- Layer 2
    E1 - 3 / 4 IN PLASTER OR GYP BOARD;  !- Layer 3

  Construction,
    reverseCEILING01,        !- Name
    E1 - 3 / 4 IN PLASTER OR GYP BOARD,  !- Outside Layer
    E4 - CEILING AIRSPACE,   !- Layer 2
    PW03;                    !- Layer 3

  Construction,
    ROOF-1,                  !- Name
    AR02,                    !- Outside Layer
    PW03;                    !- Layer 2

  Construction,
    WIN-CON-LIGHT,           !- Name
    WIN-LAY-GLASS-LIGHT;     !- Outside Layer

!-   ===========  ALL OBJECTS IN CLASS: GLOBALGEOMETRYRULES ===========

  GlobalGeometryRules,
    UpperLeftCorner,         !- Starting Vertex Position
    Counterclockwise,        !- Vertex Entry Direction
    World;                   !- Coordinate System

!-   ===========  ALL OBJECTS IN CLASS: ZONE ===========
! original zone origin (0,0,0)

  Zone,
    WEST ZONE,               !- Name
    0,                       !- Direction of Relative North {deg}
    0,                       !- X Origin {m}
    0,                       !- Y Origin {m}
    0,                       !- Z Origin {m}
    1,                       !- Type
    1,                       !- Multiplier
    autocalculate,           !- Ceiling Height {m}
    autocalculate;           !- Volume {m3}

! original zone origin (6.096,0,0)

  Zone,
    EAST ZONE,               !- Name
    0,                       !- Direction of Relative North {deg}
    0,                       !- X Origin {m}
    0,                       !- Y Origin {m}
    0,                       !- Z Origin {m}
    1,                       !- Type
    1,                       !- Multiplier
    autocalculate,           !- Ceiling Height {m}
    autocalculate;           !- Volume {m3}

! original zone origin (0,6.096,0)

  Zone,
    NORTH ZONE,              !- Name
    0,                       !- Direction of Relative North {deg}
    0,                       !- X Origin {m}
    0,                       !- Y Origin {m}