!-Generator IDFEditor 1.50
!-Option SortedOrder
!-NOTE: All comments with '!-' are ignored by the IDFEditor and are generated automatically.
!-      Use '!' comments if they need to be retained when using the IDFEditor.
!-   ===========  ALL OBJECTS IN CLASS: VERSION ===========
! HybridModel_4Zone_Solve_PeopleCount_with_HVAC.idf
! Basic file description:  Small, 4 zone model to illustrate simple rectangular building using 4ZoneWithShading_Simple_1.idf
!
! Highlights:              Hybrid model use measured zone air temperature, humidity ratio and CO2 concentration data to inversely calculate zone people count
!
! External file:           HybridModel_Measurements_with_HVAC.csv for zone air temperature data input
!
! Simulation Location/Run: CHICAGO_OHARE_INTL_IL_USA, 2 design days
!
! Location:                Chicago, IL
!
! Run Control:             Weather file simulation
!
! Building: Fictional 4 zone, 2 story building.
!
! The building is oriented due north.
!
! Floor Area:        1,600 m2
! Number of Stories: 2
!
! Zone Description Details:
!
!         _____________________________  _____________________________
!        |                             ||                             |
!        |                             ||                             |
!        |                             ||                             |
!        |                             ||                             |
!        |                             ||                             |
!        |                             ||                             |
!        |                             ||                             |
!        |                             ||                             |
!        |                             ||                             |
!        |                             ||                             |
!        |                             ||                             |
!        |                             ||                             |
!        |                             ||                             |
!        |                             ||                             |
!        |                             ||                             |
!        |_____________________________||_____________________________|
!
!
! Internal gains description:     NA
!
! Interzone Surfaces:             None
! Internal Mass:                  None
! People:                         None
! Lights:                         None
! Equipment:                      None
! Windows:                        0
! Detached Shading:               None
! Daylight:                       None
! Natural Ventilation:            None
! Compact Schedules:              Yes
! Solar Distribution:             FullExterior
!
! HVAC:                           Ideal Loads System
!
! Zonal Equipment:                NA
! Central Air Handling Equipment: No
! System Equipment Autosize:      No
! Purchased Cooling:              No
! Purchased Heating:              No
! Purchased Chilled Water:        No
! Purchased Hot Water:            No
! Coils:                          None
! Pumps:                          None
! Boilers:                        None
! Chillers:                       None
! Towers:                         None
!
! Results:
! Standard Reports:               Variable Dictionary, Surfaces (dxf-wireframe), Meter File
! Timestep or Hourly Variables:   Hourly and Daily
! Time bins Report:               None
! HTML Report:                    None
! Environmental Emissions:        None
! Utility Tariffs:                None

  Version,24.1;

!-   ===========  ALL OBJECTS IN CLASS: SIMULATIONCONTROL ===========

  SimulationControl,
    No,                      !- Do Zone Sizing Calculation
    No,                      !- Do System Sizing Calculation
    No,                      !- Do Plant Sizing Calculation
    No,                      !- Run Simulation for Sizing Periods
    Yes,                     !- Run Simulation for Weather File Run Periods
    No,                      !- Do HVAC Sizing Simulation for Sizing Periods
    1;                       !- Maximum Number of HVAC Sizing Simulation Passes

!-   ===========  ALL OBJECTS IN CLASS: BUILDING ===========

  Building,
    BUILDING #1,             !- Name
    0,                       !- North Axis {deg}
    Suburbs,                 !- Terrain
    3.9999999E-02,           !- Loads Convergence Tolerance Value {W}
    0.4000000,               !- Temperature Convergence Tolerance Value {deltaC}
    FullExterior,            !- Solar Distribution
    25,                      !- Maximum Number of Warmup Days
    6;                       !- Minimum Number of Warmup Days

!-   ===========  ALL OBJECTS IN CLASS: SURFACECONVECTIONALGORITHM:INSIDE ===========

  SurfaceConvectionAlgorithm:Inside,Simple;

!-   ===========  ALL OBJECTS IN CLASS: SURFACECONVECTIONALGORITHM:OUTSIDE ===========

  SurfaceConvectionAlgorithm:Outside,SimpleCombined;

!-   ===========  ALL OBJECTS IN CLASS: HEATBALANCEALGORITHM ===========

  HeatBalanceAlgorithm,ConductionTransferFunction;

!-   ===========  ALL OBJECTS IN CLASS: ZONEAIRCONTAMINANTBALANCE ===========

  ZoneAirContaminantBalance,
    Yes,                     !- Carbon Dioxide Concentration
    ZONE Out_DummyCO2Concentration,  !- Outdoor Carbon Dioxide Schedule Name
    No;                      !- Generic Contaminant Concentration

!-   ===========  ALL OBJECTS IN CLASS: ZONECAPACITANCEMULTIPLIER:RESEARCHSPECIAL ===========

  ZoneCapacitanceMultiplier:ResearchSpecial,
    Multiplier1,             !- Name
    ZONE 1,                  !- Zone or ZoneList Name
    ,                        !- Temperature Capacity Multiplier
    ,                        !- Humidity Capacity Multiplier
    ,                        !- Carbon Dioxide Capacity Multiplier
    ;                        !- Generic Contaminant Capacity Multiplier

  ZoneCapacitanceMultiplier:ResearchSpecial,
    Multiplier2,             !- Name
    ZONE 2,                  !- Zone or ZoneList Name
    5,                       !- Temperature Capacity Multiplier
    ,                        !- Humidity Capacity Multiplier
    ,                        !- Carbon Dioxide Capacity Multiplier
    ;                        !- Generic Contaminant Capacity Multiplier

  ZoneCapacitanceMultiplier:ResearchSpecial,
    Multiplier3,             !- Name
    ZONE 3,                  !- Zone or ZoneList Name
    8,                       !- Temperature Capacity Multiplier
    ,                        !- Humidity Capacity Multiplier
    ,                        !- Carbon Dioxide Capacity Multiplier
    ;                        !- Generic Contaminant Capacity Multiplier

  ZoneCapacitanceMultiplier:ResearchSpecial,
    Multiplier4,             !- Name
    ZONE 4,                  !- Zone or ZoneList Name
    12,                      !- Temperature Capacity Multiplier
    ,                        !- Humidity Capacity Multiplier
    ,                        !- Carbon Dioxide Capacity Multiplier
    ;                        !- Generic Contaminant Capacity Multiplier

!-   ===========  ALL OBJECTS IN CLASS: TIMESTEP ===========

  Timestep,6;

!-   ===========  ALL OBJECTS IN CLASS: SITE:LOCATION ===========

  Site:Location,
    Chicago Ohare Intl Ap IL USA WMO=725300,  !- Name
    41.99,                   !- Latitude {deg}
    -87.91,                  !- Longitude {deg}
    -6.00,                   !- Time Zone {hr}
    205.00;                  !- Elevation {m}

!-   ===========  ALL OBJECTS IN CLASS: SIZINGPERIOD:DESIGNDAY ===========
! Using Design Conditions from "Climate Design Data 2009 ASHRAE Handbook"
! Chicago Ohare Intl Ap IL USA Extreme Annual Wind Speeds, 1%=11.1m/s, 2.5%=9.4m/s, 5%=8.6m/s
! Chicago Ohare Intl Ap IL USA Extreme Annual Temperatures, Max Drybulb=-23.7°C Min Drybulb=35.9°C
! Chicago Ohare Intl Ap IL USA Annual Heating Design Conditions Wind Speed=4.9m/s Wind Dir=270
! Coldest Month=January
! Chicago Ohare Intl Ap IL USA Annual Heating 99%, MaxDB=-16.6°C

  SizingPeriod:DesignDay,
    Chicago Ohare Intl Ap Ann Htg 99% Condns DB,  !- Name
    1,                       !- Month
    21,                      !- Day of Month
    WinterDesignDay,         !- Day Type
    -16.6,                   !- Maximum Dry-Bulb Temperature {C}
    0.0,                     !- Daily Dry-Bulb Temperature Range {deltaC}
    ,                        !- Dry-Bulb Temperature Range Modifier Type
    ,                        !- Dry-Bulb Temperature Range Modifier Day Schedule Name
    Wetbulb,                 !- Humidity Condition Type
    -16.6,                   !- Wetbulb or DewPoint at Maximum Dry-Bulb {C}
    ,                        !- Humidity Condition Day Schedule Name
    ,                        !- Humidity Ratio at Maximum Dry-Bulb {kgWater/kgDryAir}
    ,                        !- Enthalpy at Maximum Dry-Bulb {J/kg}
    ,                        !- Daily Wet-Bulb Temperature Range {deltaC}
    98886.,                  !- Barometric Pressure {Pa}
    4.9,                     !- Wind Speed {m/s}
    270,                     !- Wind Direction {deg}
    No,                      !- Rain Indicator
    No,                      !- Snow Indicator
    No,                      !- Daylight Saving Time Indicator
    ASHRAEClearSky,          !- Solar Model Indicator
    ,                        !- Beam Solar Day Schedule Name
    ,                        !- Diffuse Solar Day Schedule Name
    ,                        !- ASHRAE Clear Sky Optical Depth for Beam Irradiance (taub) {dimensionless}
    ,                        !- ASHRAE Clear Sky Optical Depth for Diffuse Irradiance (taud) {dimensionless}
    0.00;                    !- Sky Clearness

! Chicago Ohare Intl Ap IL USA Annual Cooling (DB=>MWB) 1%, MaxDB=31.6°C MWB=23°C

  SizingPeriod:DesignDay,
    Chicago Ohare Intl Ap Ann Clg 1% Condns DB=>MWB,  !- Name
    7,                       !- Month
    21,                      !- Day of Month
    SummerDesignDay,         !- Day Type
    31.6,                    !- Maximum Dry-Bulb Temperature {C}
    10.5,                    !- Daily Dry-Bulb Temperature Range {deltaC}
    ,                        !- Dry-Bulb Temperature Range Modifier Type
    ,                        !- Dry-Bulb Temperature Range Modifier Day Schedule Name
    Wetbulb,                 !- Humidity Condition Type
    23,                      !- Wetbulb or DewPoint at Maximum Dry-Bulb {C}
    ,                        !- Humidity Condition Day Schedule Name
    ,                        !- Humidity Ratio at Maximum Dry-Bulb {kgWater/kgDryAir}
    ,                        !- Enthalpy at Maximum Dry-Bulb {J/kg}
    ,                        !- Daily Wet-Bulb Temperature Range {deltaC}
    98886.,                  !- Barometric Pressure {Pa}
    5.2,                     !- Wind Speed {m/s}
    230,                     !- Wind Direction {deg}
    No,                      !- Rain Indicator
    No,                      !- Snow Indicator
    No,                      !- Daylight Saving Time Indicator
    ASHRAEClearSky,          !- Solar Model Indicator
    ,                        !- Beam Solar Day Schedule Name
    ,                        !- Diffuse Solar Day Schedule Name
    ,                        !- ASHRAE Clear Sky Optical Depth for Beam Irradiance (taub) {dimensionless}
    ,                        !- ASHRAE Clear Sky Optical Depth for Diffuse Irradiance (taud) {dimensionless}
    1.00;                    !- Sky Clearness

!-   ===========  ALL OBJECTS IN CLASS: RUNPERIOD ===========

  RunPeriod,
    Run Period 1,            !- Name
    1,                       !- Begin Month
    1,                       !- Begin Day of Month
    ,                        !- Begin Year
    12,                      !- End Month
    31,                      !- End Day of Month
    ,                        !- End Year
    ,                        !- Day of Week for Start Day
    Yes,                     !- Use Weather File Holidays and Special Days
    Yes,                     !- Use Weather File Daylight Saving Period
    No,                      !- Apply Weekend Holiday Rule
    Yes,                     !- Use Weather File Rain Indicators
    Yes;                     !- Use Weather File Snow Indicators

!-   ===========  ALL OBJECTS IN CLASS: SITE:GROUNDTEMPERATURE:BUILDINGSURFACE ===========

  Site:GroundTemperature:BuildingSurface,20,20,20,20,20,20,20,20,20,20,20,20;

!-   ===========  ALL OBJECTS IN CLASS: SCHEDULETYPELIMITS ===========

  ScheduleTypeLimits,
    Any Number;              !- Name

  ScheduleTypeLimits,
    Fraction,                !- Name
    0.0,                     !- Lower Limit Value
    1.0,                     !- Upper Limit Value
    CONTINUOUS;              !- Numeric Type

  ScheduleTypeLimits,
    Temperature,             !- Name
    -100,                    !- Lower Limit Value
    200,                     !- Upper Limit Value
    CONTINUOUS;              !- Numeric Type

  ScheduleTypeLimits,
    ControlType,             !- Name
    0,                       !- Lower Limit Value
    4,                       !- Upper Limit Value
    DISCRETE;                !- Numeric Type

  ScheduleTypeLimits,
    PeopleActivityLevel_limit,  !- Name
    0,                       !- Lower Limit Value
    ,                        !- Upper Limit Value
    Continuous,              !- Numeric Type
    activitylevel;           !- Unit Type

!-   ===========  ALL OBJECTS IN CLASS: SCHEDULE:DAY:INTERVAL ===========

  Schedule:Day:Interval,
    OfficeSmall BLDG_OCC_SCH Default,  !- Name
    Fraction,                !- Schedule Type Limits Name
    No,                      !- Interpolate to Timestep
    24:00,                   !- Time 1
    0;                       !- Value Until Time 1

  Schedule:Day:Interval,
    OfficeSmall BLDG_OCC_SCH Summer Design Day,  !- Name
    Fraction,                !- Schedule Type Limits Name
    No,                      !- Interpolate to Timestep
    24:00,                   !- Time 1
    1;                       !- Value Until Time 1

  Schedule:Day:Interval,
    OfficeSmall BLDG_OCC_SCH Winter Design Day,  !- Name
    Fraction,                !- Schedule Type Limits Name
    No,                      !- Interpolate to Timestep
    24:00,                   !- Time 1
    0;                       !- Value Until Time 1

  Schedule:Day:Interval,
    OfficeSmall BLDG_OCC_SCH Wkdy Day,  !- Name
    Fraction,                !- Schedule Type Limits Name
    No,                      !- Interpolate to Timestep
    06:00,                   !- Time 1
    0,                       !- Value Until Time 1
    07:00,                   !- Time 2
    0.11,                    !- Value Until Time 2
    08:00,                   !- Time 3
    0.21,                    !- Value Until Time 3
    12:00,                   !- Time 4
    1,                       !- Value Until Time 4
    13:00,                   !- Time 5
    0.53,                    !- Value Until Time 5
    17:00,                   !- Time 6
    1,                       !- Value Until Time 6
    18:00,                   !- Time 7
    0.32,                    !- Value Until Time 7
    22:00,                   !- Time 8
    0.11,                    !- Value Until Time 8
    23:00,                   !- Time 9
    0.05,                    !- Value Until Time 9
    24:00,                   !- Time 10
    0;                       !- Value Until Time 10

!-   ===========  ALL OBJECTS IN CLASS: SCHEDULE:WEEK:DAILY ===========

  Schedule:Week:Daily,
    OfficeSmall BLDG_OCC_SCH Week Rule - Jan1-Dec31,  !- Name
    OfficeSmall BLDG_OCC_SCH Default,  !- Sunday Schedule:Day Name
    OfficeSmall BLDG_OCC_SCH Wkdy Day,  !- Monday Schedule:Day Name
    OfficeSmall BLDG_OCC_SCH Wkdy Day,  !- Tuesday Schedule:Day Name
    OfficeSmall BLDG_OCC_SCH Wkdy Day,  !- Wednesday Schedule:Day Name
    OfficeSmall BLDG_OCC_SCH Wkdy Day,  !- Thursday Schedule:Day Name
    OfficeSmall BLDG_OCC_SCH Wkdy Day,  !- Friday Schedule:Day Name
    OfficeSmall BLDG_OCC_SCH Default,  !- Saturday Schedule:Day Name
    OfficeSmall BLDG_OCC_SCH Default,  !- Holiday Schedule:Day Name
    OfficeSmall BLDG_OCC_SCH Summer Design Day,  !- SummerDesignDay Schedule:Day Name
    OfficeSmall BLDG_OCC_SCH Winter Design Day,  !- WinterDesignDay Schedule:Day Name
    OfficeSmall BLDG_OCC_SCH Default,  !- CustomDay1 Schedule:Day Name
    OfficeSmall BLDG_OCC_SCH Default;  !- CustomDay2 Schedule:Day Name

!-   ===========  ALL OBJECTS IN CLASS: SCHEDULE:YEAR ===========

  Schedule:Year,
    OfficeSmall BLDG_OCC_SCH,!- Name
    Fraction,                !- Schedule Type Limits Name
    OfficeSmall BLDG_OCC_SCH Week Rule - Jan1-Dec31,  !- Schedule:Week Name 1
    1,                       !- Start Month 1
    1,                       !- Start Day 1
    12,                      !- End Month 1
    31;                      !- End Day 1

!-   ===========  ALL OBJECTS IN CLASS: SCHEDULE:COMPACT ===========

  Schedule:Compact,
    INFIL-SCHED,             !- Name
    Fraction,                !- Schedule Type Limits Name
    Through: 12/31,          !- Field 1
    For: AllDays,            !- Field 2
    Until: 06:00,1,          !- Field 3
    Until: 09:00,0.5,        !- Field 5
    Until: 19:00,0.25,       !- Field 7
    Until: 22:00,0.5,        !- Field 9
    Until: 24:00,1;          !- Field 11

  Schedule:Compact,
    ZONE CONTROL TYPE SCHEDULE,  !- Name
    CONTROLTYPE,             !- Schedule Type Limits Name
    Through: 12/31,          !- Field 1
    For: AllDays,            !- Field 2
    Until: 24:00,4;          !- Field 3

  Schedule:Compact,
    ZONE HEATING SETPOINTS,  !- Name
    TEMPERATURE,             !- Schedule Type Limits Name
    Through: 12/31,          !- Field 1
    For: Weekdays WinterDesignDay, !- Field 2
    Until: 7:00,-100.00,     !- Field 3
    Until: 17:00,-100.00,    !- Field 5
    Until: 24:00,-100.00,    !- Field 7
    For: AllOtherDays,       !- Field 9
    Until: 24:00,-100.00;    !- Field 10

  Schedule:Compact,
    ZONE COOLING SETPOINTS,  !- Name
    TEMPERATURE,             !- Schedule Type Limits Name
    Through: 12/31,          !- Field 1
    For: Weekdays SummerDesignDay, !- Field 2
    Until: 7:00,100.00,      !- Field 3
    Until: 17:00,100.00,     !- Field 5
    Until: 24:00,100.00,     !- Field 7
    For: AllOtherDays,       !- Field 9
    Until: 24:00,100.00;     !- Field 10

  Schedule:Compact,
    OfficeSmall ACTIVITY_SCH,!- Name
    PeopleActivityLevel_limit,  !- Schedule Type Limits Name
    Through: 12/31,          !- Field 1
    For: AllDays,            !- Field 2
    Until: 24:00,120;        !- Field 3

!-   ===========  ALL OBJECTS IN CLASS: SCHEDULE:FILE ===========

  Schedule:File,
    ZONE Out_DummyCO2Concentration,  !- Name
    Any Number,              !- Schedule Type Limits Name
    HybridModel_Measurements_with_HVAC.csv,  !- File Name
    4,                       !- Column Number
    1,                       !- Rows to Skip at Top
    8760,                    !- Number of Hours of Data
    Comma,                   !- Column Separator
    ,                        !- Interpolate to Timestep
    10,                      !- Minutes per Item
    ;                        !- Adjust Schedule for Daylight Savings

  Schedule:File,
    obFMU_PeopleSch,         !- Name
    Fraction,                !- Schedule Type Limits Name
    HybridModel_Measurements_with_HVAC.csv,  !- File Name
    5,                       !- Column Number
    1,                       !- Rows to Skip at Top
    8760,                    !- Number of Hours of Data
    Comma,                   !- Column Separator
    No,                      !- Interpolate to Timestep
    10,                      !- Minutes per Item
    ;                        !- Adjust Schedule for Daylight Savings

  Schedule:File,
    ZONE 1_MeasuredTemperature,  !- Name
    Any Number,              !- Schedule Type Limits Name
    HybridModel_Measurements_with_HVAC.csv,  !- File Name
    6,                       !- Column Number
    1,                       !- Rows to Skip at Top
    8760,                    !- Number of Hours of Data
    Comma,                   !- Column Separator
    ,                        !- Interpolate to Timestep
    10,                      !- Minutes per Item
    ;                        !- Adjust Schedule for Daylight Savings

  Schedule:File,
    ZONE 2_MeasuredHumidityRatio,  !- Name
    Any Number,              !- Schedule Type Limits Name
    HybridModel_Measurements_with_HVAC.csv,  !- File Name
    12,                      !- Column Number
    1,                       !- Rows to Skip at Top
    8760,                    !- Number of Hours of Data
    Comma,                   !- Column Separator
    ,                        !- Interpolate to Timestep
    10,                      !- Minutes per Item
    ;                        !- Adjust Schedule for Daylight Savings

  Schedule:File,
    ZONE 3_MeasuredCO2Concentration,  !- Name
    Any Number,              !- Schedule Type Limits Name
    HybridModel_Measurements_with_HVAC.csv,  !- File Name
    16,                      !- Column Number
    1,                       !- Rows to Skip at Top
    8760,                    !- Number of Hours of Data
    Comma,                   !- Column Separator
    ,                        !- Interpolate to Timestep
    10,                      !- Minutes per Item
    ;                        !- Adjust Schedule for Daylight Savings

  Schedule:File,
    ZONE 1_Inlet_MassFlow,   !- Name
    Any Number,              !- Schedule Type Limits Name
    HybridModel_Measurements_with_HVAC.csv,  !- File Name
    18,                      !- Column Number
    1,                       !- Rows to Skip at Top
    8760,                    !- Number of Hours of Data
    Comma,                   !- Column Separator
    ,                        !- Interpolate to Timestep
    10,                      !- Minutes per Item
    ;                        !- Adjust Schedule for Daylight Savings

  Schedule:File,
    ZONE 2_Inlet_MassFlow,   !- Name
    Any Number,              !- Schedule Type Limits Name
    HybridModel_Measurements_with_HVAC.csv,  !- File Name
    19,                      !- Column Number
    1,                       !- Rows to Skip at Top
    8760,                    !- Number of Hours of Data
    Comma,                   !- Column Separator
    ,                        !- Interpolate to Timestep
    10,                      !- Minutes per Item
    ;                        !- Adjust Schedule for Daylight Savings

  Schedule:File,
    ZONE 3_Inlet_MassFlow,   !- Name
    Any Number,              !- Schedule Type Limits Name
    HybridModel_Measurements_with_HVAC.csv,  !- File Name
    20,                      !- Column Number
    1,                       !- Rows to Skip at Top
    8760,                    !- Number of Hours of Data
    Comma,                   !- Column Separator
    ,                        !- Interpolate to Timestep
    10,                      !- Minutes per Item
    ;                        !- Adjust Schedule for Daylight Savings

  Schedule:File,
    ZONE 1_Inlet_Temperature,!- Name
    Any Number,              !- Schedule Type Limits Name
    HybridModel_Measurements_with_HVAC.csv,  !- File Name
    22,                      !- Column Number
    1,                       !- Rows to Skip at Top
    8760,                    !- Number of Hours of Data
    Comma,                   !- Column Separator
    ,                        !- Interpolate to Timestep
    10,                      !- Minutes per Item
    ;                        !- Adjust Schedule for Daylight Savings

  Schedule:File,
    ZONE 2_Inlet_HumidityRatio,  !- Name
    Any Number,              !- Schedule Type Limits Name
    HybridModel_Measurements_with_HVAC.csv,  !- File Name
    27,                      !- Column Number
    1,                       !- Rows to Skip at Top
    8760,                    !- Number of Hours of Data
    Comma,                   !- Column Separator
    ,                        !- Interpolate to Timestep
    10,                      !- Minutes per Item
    ;                        !- Adjust Schedule for Daylight Savings

  Schedule:File,
    ZONE 3_Inlet_CO2,        !- Name
    Any Number,              !- Schedule Type Limits Name
    HybridModel_Measurements_with_HVAC.csv,  !- File Name
    32,                      !- Column Number
    1,                       !- Rows to Skip at Top
    8760,                    !- Number of Hours of Data
    Comma,                   !- Column Separator
    ,                        !- Interpolate to Timestep
    10,                      !- Minutes per Item
    ;                        !- Adjust Schedule for Daylight Savings

!-   ===========  ALL OBJECTS IN CLASS: MATERIAL ===========
! No location information present in original BLAST file

  Material,
    A2 - 4 IN DENSE FACE BRICK,  !- Name
    Rough,                   !- Roughness
    0.1014984,               !- Thickness {m}
    1.245296,                !- Conductivity {W/m-K}
    2082.400,                !- Density {kg/m3}
    920.4800,                !- Specific Heat {J/kg-K}
    0.9000000,               !- Thermal Absorptance
    0.9300000,               !- Solar Absorptance
    0.9300000;               !- Visible Absorptance

  Material,
    B3 - 2 IN INSULATION,    !- Name
    VeryRough,               !- Roughness
    5.0901599E-02,           !- Thickness {m}
    4.3239430E-02,           !- Conductivity {W/m-K}
    32.03693,                !- Density {kg/m3}
    836.8000,                !- Specific Heat {J/kg-K}
    0.9000000,               !- Thermal Absorptance
    0.5000000,               !- Solar Absorptance
    0.5000000;               !- Visible Absorptance

  Material,
    C2 - 4 IN LW CONCRETE BLOCK,  !- Name
    MediumRough,             !- Roughness
    0.1014984,               !- Thickness {m}
    0.3805070,               !- Conductivity {W/m-K}
    608.7016,                !- Density {kg/m3}
    836.8000,                !- Specific Heat {J/kg-K}
    0.9000000,               !- Thermal Absorptance
    0.6500000,               !- Solar Absorptance
    0.6500000;               !- Visible Absorptance

  Material,
    E1 - 3 / 4 IN PLASTER OR GYP BOARD,  !- Name
    Smooth,                  !- Roughness
    1.9050000E-02,           !- Thickness {m}
    0.7264224,               !- Conductivity {W/m-K}
    1601.846,                !- Density {kg/m3}
    836.8000,                !- Specific Heat {J/kg-K}
    0.9000000,               !- Thermal Absorptance
    0.9200000,               !- Solar Absorptance
    0.9200000;               !- Visible Absorptance

  Material,
    WOOD - HARDWOOD 1 / 8 IN,!- Name
    MediumSmooth,            !- Roughness
    3.1699201E-03,           !- Thickness {m}
    0.1591211,               !- Conductivity {W/m-K}
    720.8308,                !- Density {kg/m3}
    1255.200,                !- Specific Heat {J/kg-K}
    0.9000000,               !- Thermal Absorptance
    0.7800000,               !- Solar Absorptance
    0.7800000;               !- Visible Absorptance

  Material,
    C7 - 8 IN LW CONCRETE BLOCK,  !- Name
    Rough,                   !- Roughness
    0.2033016,               !- Thickness {m}
    0.5707605,               !- Conductivity {W/m-K}
    608.7016,                !- Density {kg/m3}
    836.8000,                !- Specific Heat {J/kg-K}
    0.9000000,               !- Thermal Absorptance
    0.6500000,               !- Solar Absorptance
    0.6500000;               !- Visible Absorptance

  Material,
    E5 - ACOUSTIC TILE,      !- Name
    MediumSmooth,            !- Roughness
    1.9050000E-02,           !- Thickness {m}
    6.0535200E-02,           !- Conductivity {W/m-K}
    480.5539,                !- Density {kg/m3}
    836.8000,                !- Specific Heat {J/kg-K}
    0.9000000,               !- Thermal Absorptance
    0.3200000,               !- Solar Absorptance
    0.3200000;               !- Visible Absorptance

  Material,
    C5 - 4 IN HW CONCRETE,   !- Name
    MediumRough,             !- Roughness
    0.1014984,               !- Thickness {m}
    1.729577,                !- Conductivity {W/m-K}
    2242.585,                !- Density {kg/m3}
    836.8000,                !- Specific Heat {J/kg-K}
    0.9000000,               !- Thermal Absorptance
    0.6500000,               !- Solar Absorptance
    0.6500000;               !- Visible Absorptance

  Material,
    C10 - 8 IN HW CONCRETE,  !- Name
    MediumRough,             !- Roughness
    0.2033016,               !- Thickness {m}
    1.729577,                !- Conductivity {W/m-K}
    2242.585,                !- Density {kg/m3}
    836.8000,                !- Specific Heat {J/kg-K}
    0.9000000,               !- Thermal Absorptance
    0.6500000,               !- Solar Absorptance
    0.6500000;               !- Visible Absorptance

  Material,
    E2 - 1 / 2 IN SLAG OR STONE,  !- Name
    Rough,                   !- Roughness
    1.2710161E-02,           !- Thickness {m}
    1.435549,                !- Conductivity {W/m-K}
    881.0155,                !- Density {kg/m3}
    1673.600,                !- Specific Heat {J/kg-K}
    0.9000000,               !- Thermal Absorptance
    0.5500000,               !- Solar Absorptance
    0.5500000;               !- Visible Absorptance

  Material,
    E3 - 3 / 8 IN FELT AND MEMBRANE,  !- Name
    Rough,                   !- Roughness
    9.5402403E-03,           !- Thickness {m}
    0.1902535,               !- Conductivity {W/m-K}
    1121.292,                !- Density {kg/m3}
    1673.600,                !- Specific Heat {J/kg-K}
    0.9000000,               !- Thermal Absorptance
    0.7500000,               !- Solar Absorptance
    0.7500000;               !- Visible Absorptance

  Material,
    B6 - 2 IN DENSE INSULATION,  !- Name
    VeryRough,               !- Roughness