!-Generator IDFEditor 1.34
!-Option OriginalOrderTop UseSpecialFormat
!-NOTE: All comments with '!-' are ignored by the IDFEditor and are generated automatically.
!-      Use '!' comments if they need to be retained when using the IDFEditor.
! HybridVentilationControlGlobalSimple.idf
! Basic file description:  1 story building divided into 3 interior conditioned zones and 1 unconditioned zone over the
!                          conditioned zones. Roof with no plenum. No ground contact with floor.
!                          Outdoor air is modulated based on occupancy and floor area.
!
! Highlights:              This file does the basic test of a hybrid ventilation control. The hybrid ventilation control
!                          maximizes natural ventilation to reduce cooling/heating loads by controlling HVAC system
!                          operation and natural ventilation calculated using either the AirflowNetwork model or Ventilation and
!                          Mixing objects, so that both can not work simultaneously. The control in this file has to work with
!                          Ventilation and Mixing objects to provide natural ventilation. The hybrid ventilation control also
!                          provides a choice to turn on Ventilation and Mixing controlled either by individual objects or by a
!                          master object (global control).
!
!
! Simulation Location/Run: CHICAGO_IL_USA TMY2-94846, 2 design days, 2 run periods,
!                          Run Control executes the design days only.
!
! Location:                Chicago, IL
!
! Design Days:             CHICAGO_IL_USA Annual Heating 99% Design Conditions DB, MaxDB= -17.3°C
!                          CHICAGO_IL_USA Annual Cooling 1% Design Conditions, MaxDB=  31.5°C MCWB=  23.0°C
!
! Run Period (Weather File): Winter 1/14, Summer 7/7, CHICAGO_IL_USA TMY2-94846
!
! Run Control:             No zone or system sizing, design day simulation.
!
! Building: Single floor rectangular L-shaped building 40 ft south wall, 40 ft west wall, zone height 10 feet.
!           There is a single window in West Zone's south wall. The walls are 1 in stucco over 4 in common brick
!           and gypboard. The ceilings consist of 1 in dense insulation
!           and 3/4" gypsum drywall. A unconditioned attic zone is over three conditioned zones with height 3 feet.
!           The roof is a built up roof with 1/2 in stone over 3/8 in felt supported by 2 in heavy weight concrete.
!           The window to wall ratio is approximately 0.07.
!
!           There is a duct system with about 10% supply leaks and 5% return leaks.
!           Supply ducts are located in the attic zone and return ducts are exposed to outdoors.
!           Both supply and return leaks occur in the attic zone.
!
!           There is daylighting through the window in West Zone. The window has double-pane electrochromic
!           (switchable) glazing in which the outer pane darkens automatically to control daylight glare.
!           Spectral (wavelength by wavelength) data are used for the optical properties
!           of the inner pane of the double glazing. Spectral average properties are used
!           for the outer (electrochromic) pane.
!
!           The window also has a frame and divider. The 2-D glass conduction effects near
!           the frame and divider ("edge-of-glass effects") are taken into account.
!
!           The overhead electric lighting has continuous dimming control. The zone has a
!           single daylighting control point ("reference point") with an illuminance set point
!           of 500 lux (about 50 footcandles). The reference point is located at the center of
!           the zone at desk height. The other zones have no windows and so have no daylighting controls.
!           Note that Clearness for the winter design day is not 0.0, as in the other sample inputs,
!           but 1.0. This turns on solar radiation in order to show the effect of daylighting in the winter.
!           (With Clearness = 0 all daylighting illuminances are zero)
!
!           The building is oriented due north.
!
! Floor Area:        130.1 m2 (1403 ft2)
! Number of Stories: 1
!
! Conditioned Zone Description Details:
!
!       (0,12.192,0)                 (9.144,12.192,0)
!           _______        _________________
!          |       ********                 |
!          |                                |
!          |                                |
!          |                                |
!          |           North                |
!          |                                |
!          |                                |
!          |             (6.096,6.096,0)    |
!          |_____________   ________________|____________ (12.192,6.069,0)
!          | (0,6.096,0) ###    |    (9.144,6.096,0)     |
!          |                    |                        |
!          |                    |                        |
!          |                    #                        *
!          |     Resistive      #         East           *    window = *
!          |                    #                        *    door = #
!          |                    |                        |
!          |                    |                        |
!          |_____********_______|________________________|
!
!      (0,0,0)             (6.069,0,0)               (12.192,0,0)
!
! Internal gains description:     ZONE West      - lighting is 1464.375 watts, equip is 2928.751 watts, 3 occupants
! Internal gains description:     ZONE North     - lighting is 878.6252 watts, equip is 2928.751 watts, 4 occupants
! Internal gains description:     ZONE East      - lighting is 1464.375 watts, equip is 1464.375 watts, 3 occupants
!
! Interzone Surfaces:             3 interzone surfaces (see diagram), and ceilings between three zonditioned zones and attic zone
! Internal Mass:                  None
! People:                         10
! Lights:                         3807 W
! Equipment:                      7323 W
! Windows:                        1
! Detached Shading:               None
! Daylight:                       Yes (Daylighting:Detailed)
! Natural Ventilation :           Simple
! Compact Schedules:              Yes
! Solair Distribution:            FullInteriorAndExterior
! HVAC:                           3 zone central system using single air loop. DX cooling coil provides space cooling.
!                                 Gas heating coils provide main heating and 2 terminal reheat..
!                                 Thermostat setting at 22 C in winter with 15 C set back temperature, 24 C in summer
!                                 with 30 C set back temperature. Cooling coil off in winter, heating coil on all year.
!
! Zonal Equipment:                West Zone - AIR DISTRIBUTION UNIT with AirTerminal:SingleDuct:ConstantVolume:Reheat
!                                 East Zone - AIR DISTRIBUTION UNIT with AirTerminal:SingleDuct:ConstantVolume:Reheat
!                                 North Zone - Direct Air with Zone Exhaust Fan
! Central Air Handling Equipment: Yes
! System Equipment Autosize:      No
! Purchased Cooling:              No
! Purchased Heating:              No
! Purchased Chilled Water:        No
! Purchased Hot Water:            No
! Coils:                          Coil:Heating:Fuel
!                                 Coil:Cooling:DX:SingleSpeed
! Pumps:                          None
! Boilers:                        None
! Chillers:                       None
! Towers:                         None
!
! Results:
! Standard Reports:               None
! Timestep or Hourly Variables:   Timestep
! Time bins Report:               None
! HTML Report:                    None
! Environmental Emissions:        None
! Utility Tariffs:                None

  Version,24.1;

  Building,
    Small Office,            !- Name
    0,                       !- North Axis {deg}
    Suburbs,                 !- Terrain
    0.001,                   !- Loads Convergence Tolerance Value {W}
    0.0050000,               !- Temperature Convergence Tolerance Value {deltaC}
    FullInteriorAndExterior, !- Solar Distribution
    25,                      !- Maximum Number of Warmup Days
    6;                       !- Minimum Number of Warmup Days

  Timestep,6;

  SurfaceConvectionAlgorithm:Inside,TARP;

  SurfaceConvectionAlgorithm:Outside,DOE-2;

  HeatBalanceAlgorithm,ConductionTransferFunction;

  Output:DebuggingData,
    No,                      !- Report Debugging Data
    No;                      !- Report During Warmup

  SimulationControl,
    No,                      !- Do Zone Sizing Calculation
    No,                      !- Do System Sizing Calculation
    No,                      !- Do Plant Sizing Calculation
    Yes,                     !- Run Simulation for Sizing Periods
    Yes,                     !- Run Simulation for Weather File Run Periods
    No,                      !- Do HVAC Sizing Simulation for Sizing Periods
    1;                       !- Maximum Number of HVAC Sizing Simulation Passes

  RunPeriod,
    Run Period 1,            !- Name
    1,                       !- Begin Month
    14,                      !- Begin Day of Month
    ,                        !- Begin Year
    1,                       !- End Month
    14,                      !- End Day of Month
    ,                        !- End Year
    Tuesday,                 !- Day of Week for Start Day
    Yes,                     !- Use Weather File Holidays and Special Days
    Yes,                     !- Use Weather File Daylight Saving Period
    No,                      !- Apply Weekend Holiday Rule
    Yes,                     !- Use Weather File Rain Indicators
    Yes;                     !- Use Weather File Snow Indicators

  RunPeriod,
    Run Period 2,            !- Name
    7,                       !- Begin Month
    7,                       !- Begin Day of Month
    ,                        !- Begin Year
    7,                       !- End Month
    11,                      !- End Day of Month
    ,                        !- End Year
    Tuesday,                 !- Day of Week for Start Day
    Yes,                     !- Use Weather File Holidays and Special Days
    Yes,                     !- Use Weather File Daylight Saving Period
    No,                      !- Apply Weekend Holiday Rule
    Yes,                     !- Use Weather File Rain Indicators
    No;                      !- Use Weather File Snow Indicators

  Site:Location,
    CHICAGO_IL_USA TMY2-94846,  !- Name
    41.78,                   !- Latitude {deg}
    -87.75,                  !- Longitude {deg}
    -6.00,                   !- Time Zone {hr}
    190.00;                  !- Elevation {m}

! CHICAGO_IL_USA Annual Heating 99% Design Conditions DB, MaxDB= -17.3°C

  SizingPeriod:DesignDay,
    CHICAGO_IL_USA Annual Heating 99% Design Conditions DB,  !- Name
    1,                       !- Month
    21,                      !- Day of Month
    WinterDesignDay,         !- Day Type
    -17.3,                   !- Maximum Dry-Bulb Temperature {C}
    0.0,                     !- Daily Dry-Bulb Temperature Range {deltaC}
    ,                        !- Dry-Bulb Temperature Range Modifier Type
    ,                        !- Dry-Bulb Temperature Range Modifier Day Schedule Name
    Wetbulb,                 !- Humidity Condition Type
    -17.3,                   !- Wetbulb or DewPoint at Maximum Dry-Bulb {C}
    ,                        !- Humidity Condition Day Schedule Name
    ,                        !- Humidity Ratio at Maximum Dry-Bulb {kgWater/kgDryAir}
    ,                        !- Enthalpy at Maximum Dry-Bulb {J/kg}
    ,                        !- Daily Wet-Bulb Temperature Range {deltaC}
    99063.,                  !- Barometric Pressure {Pa}
    4.9,                     !- Wind Speed {m/s}
    270,                     !- Wind Direction {deg}
    No,                      !- Rain Indicator
    No,                      !- Snow Indicator
    No,                      !- Daylight Saving Time Indicator
    ASHRAEClearSky,          !- Solar Model Indicator
    ,                        !- Beam Solar Day Schedule Name
    ,                        !- Diffuse Solar Day Schedule Name
    ,                        !- ASHRAE Clear Sky Optical Depth for Beam Irradiance (taub) {dimensionless}
    ,                        !- ASHRAE Clear Sky Optical Depth for Diffuse Irradiance (taud) {dimensionless}
    0.0;                     !- Sky Clearness

! CHICAGO_IL_USA Annual Cooling 1% Design Conditions, MaxDB=  31.5°C MCWB=  23.0°C

  SizingPeriod:DesignDay,
    CHICAGO_IL_USA Annual Cooling 1% Design Conditions DB/MCWB,  !- Name
    7,                       !- Month
    21,                      !- Day of Month
    SummerDesignDay,         !- Day Type
    31.5,                    !- Maximum Dry-Bulb Temperature {C}
    10.7,                    !- Daily Dry-Bulb Temperature Range {deltaC}
    ,                        !- Dry-Bulb Temperature Range Modifier Type
    ,                        !- Dry-Bulb Temperature Range Modifier Day Schedule Name
    Wetbulb,                 !- Humidity Condition Type
    23.0,                    !- Wetbulb or DewPoint at Maximum Dry-Bulb {C}
    ,                        !- Humidity Condition Day Schedule Name
    ,                        !- Humidity Ratio at Maximum Dry-Bulb {kgWater/kgDryAir}
    ,                        !- Enthalpy at Maximum Dry-Bulb {J/kg}
    ,                        !- Daily Wet-Bulb Temperature Range {deltaC}
    99063.,                  !- Barometric Pressure {Pa}
    5.3,                     !- Wind Speed {m/s}
    230,                     !- Wind Direction {deg}
    No,                      !- Rain Indicator
    No,                      !- Snow Indicator
    No,                      !- Daylight Saving Time Indicator
    ASHRAEClearSky,          !- Solar Model Indicator
    ,                        !- Beam Solar Day Schedule Name
    ,                        !- Diffuse Solar Day Schedule Name
    ,                        !- ASHRAE Clear Sky Optical Depth for Beam Irradiance (taub) {dimensionless}
    ,                        !- ASHRAE Clear Sky Optical Depth for Diffuse Irradiance (taud) {dimensionless}
    1.0;                     !- Sky Clearness

  Site:GroundTemperature:BuildingSurface,20.03,20.03,20.13,20.30,20.43,20.52,20.62,20.77,20.78,20.55,20.44,20.20;

  Material,
    A1 - 1 IN STUCCO,        !- Name
    Smooth,                  !- Roughness
    2.5389841E-02,           !- Thickness {m}
    0.6918309,               !- Conductivity {W/m-K}
    1858.142,                !- Density {kg/m3}
    836.8000,                !- Specific Heat {J/kg-K}
    0.9000000,               !- Thermal Absorptance
    0.9200000,               !- Solar Absorptance
    0.9200000;               !- Visible Absorptance

  Material,
    C4 - 4 IN COMMON BRICK,  !- Name
    Rough,                   !- Roughness
    0.1014984,               !- Thickness {m}
    0.7264224,               !- Conductivity {W/m-K}
    1922.216,                !- Density {kg/m3}
    836.8000,                !- Specific Heat {J/kg-K}
    0.9000000,               !- Thermal Absorptance
    0.7600000,               !- Solar Absorptance
    0.7600000;               !- Visible Absorptance

  Material,
    E1 - 3 / 4 IN PLASTER OR GYP BOARD,  !- Name
    Smooth,                  !- Roughness
    1.9050000E-02,           !- Thickness {m}
    0.7264224,               !- Conductivity {W/m-K}
    1601.846,                !- Density {kg/m3}
    836.8000,                !- Specific Heat {J/kg-K}
    0.9000000,               !- Thermal Absorptance
    0.9200000,               !- Solar Absorptance
    0.9200000;               !- Visible Absorptance

  Material,
    C6 - 8 IN CLAY TILE,     !- Name
    Smooth,                  !- Roughness
    0.2033016,               !- Thickness {m}
    0.5707605,               !- Conductivity {W/m-K}
    1121.292,                !- Density {kg/m3}
    836.8000,                !- Specific Heat {J/kg-K}
    0.9000000,               !- Thermal Absorptance
    0.8200000,               !- Solar Absorptance
    0.8200000;               !- Visible Absorptance

  Material,
    C10 - 8 IN HW CONCRETE,  !- Name
    MediumRough,             !- Roughness
    0.2033016,               !- Thickness {m}
    1.729577,                !- Conductivity {W/m-K}
    2242.585,                !- Density {kg/m3}
    836.8000,                !- Specific Heat {J/kg-K}
    0.9000000,               !- Thermal Absorptance
    0.6500000,               !- Solar Absorptance
    0.6500000;               !- Visible Absorptance

  Material,
    E2 - 1 / 2 IN SLAG OR STONE,  !- Name
    Rough,                   !- Roughness
    1.2710161E-02,           !- Thickness {m}
    1.435549,                !- Conductivity {W/m-K}
    881.0155,                !- Density {kg/m3}
    1673.600,                !- Specific Heat {J/kg-K}
    0.9000000,               !- Thermal Absorptance
    0.5500000,               !- Solar Absorptance
    0.5500000;               !- Visible Absorptance

  Material,
    E3 - 3 / 8 IN FELT AND MEMBRANE,  !- Name
    Rough,                   !- Roughness
    9.5402403E-03,           !- Thickness {m}
    0.1902535,               !- Conductivity {W/m-K}
    1121.292,                !- Density {kg/m3}
    1673.600,                !- Specific Heat {J/kg-K}
    0.9000000,               !- Thermal Absorptance
    0.7500000,               !- Solar Absorptance
    0.7500000;               !- Visible Absorptance

  Material,
    B5 - 1 IN DENSE INSULATION,  !- Name
    VeryRough,               !- Roughness
    2.5389841E-02,           !- Thickness {m}
    4.3239430E-02,           !- Conductivity {W/m-K}
    91.30524,                !- Density {kg/m3}
    836.8000,                !- Specific Heat {J/kg-K}
    0.9000000,               !- Thermal Absorptance
    0.5000000,               !- Solar Absorptance
    0.5000000;               !- Visible Absorptance

  Material,
    C12 - 2 IN HW CONCRETE,  !- Name
    MediumRough,             !- Roughness
    5.0901599E-02,           !- Thickness {m}
    1.729577,                !- Conductivity {W/m-K}
    2242.585,                !- Density {kg/m3}
    836.8000,                !- Specific Heat {J/kg-K}
    0.9000000,               !- Thermal Absorptance
    0.6500000,               !- Solar Absorptance
    0.6500000;               !- Visible Absorptance

  Material,
    1.375in-Solid-Core,      !- Name
    Smooth,                  !- Roughness
    3.4925E-02,              !- Thickness {m}
    0.1525000,               !- Conductivity {W/m-K}
    614.5000,                !- Density {kg/m3}
    1630.0000,               !- Specific Heat {J/kg-K}
    0.9000000,               !- Thermal Absorptance
    0.9200000,               !- Solar Absorptance
    0.9200000;               !- Visible Absorptance

  WindowMaterial:Glazing,
    SPECTRAL GLASS INNER PANE,  !- Name
    Spectral,                !- Optical Data Type
    TestSpectralDataSet,     !- Window Glass Spectral Data Set Name
    0.0099,                  !- Thickness {m}
    0.0,                     !- Solar Transmittance at Normal Incidence
    0.0,                     !- Front Side Solar Reflectance at Normal Incidence
    0.0,                     !- Back Side Solar Reflectance at Normal Incidence
    0.0,                     !- Visible Transmittance at Normal Incidence
    0.0,                     !- Front Side Visible Reflectance at Normal Incidence
    0.0,                     !- Back Side Visible Reflectance at Normal Incidence
    0.0,                     !- Infrared Transmittance at Normal Incidence
    0.84,                    !- Front Side Infrared Hemispherical Emissivity
    0.84,                    !- Back Side Infrared Hemispherical Emissivity
    0.798;                   !- Conductivity {W/m-K}

  WindowMaterial:Glazing,
    ELECTRO GLASS LIGHT STATE,  !- Name
    SpectralAverage,         !- Optical Data Type
    ,                        !- Window Glass Spectral Data Set Name
    0.006,                   !- Thickness {m}
    0.814,                   !- Solar Transmittance at Normal Incidence
    0.086,                   !- Front Side Solar Reflectance at Normal Incidence
    0.086,                   !- Back Side Solar Reflectance at Normal Incidence
    0.847,                   !- Visible Transmittance at Normal Incidence
    0.099,                   !- Front Side Visible Reflectance at Normal Incidence
    0.099,                   !- Back Side Visible Reflectance at Normal Incidence
    0.0,                     !- Infrared Transmittance at Normal Incidence
    0.84,                    !- Front Side Infrared Hemispherical Emissivity
    0.84,                    !- Back Side Infrared Hemispherical Emissivity
    0.9;                     !- Conductivity {W/m-K}

  WindowMaterial:Glazing,
    ELECTRO GLASS DARK STATE,!- Name
    SpectralAverage,         !- Optical Data Type
    ,                        !- Window Glass Spectral Data Set Name
    0.006,                   !- Thickness {m}
    0.111,                   !- Solar Transmittance at Normal Incidence
    0.179,                   !- Front Side Solar Reflectance at Normal Incidence
    0.179,                   !- Back Side Solar Reflectance at Normal Incidence
    0.128,                   !- Visible Transmittance at Normal Incidence
    0.081,                   !- Front Side Visible Reflectance at Normal Incidence
    0.081,                   !- Back Side Visible Reflectance at Normal Incidence
    0.0,                     !- Infrared Transmittance at Normal Incidence
    0.84,                    !- Front Side Infrared Hemispherical Emissivity
    0.84,                    !- Back Side Infrared Hemispherical Emissivity
    0.9;                     !- Conductivity {W/m-K}

  WindowMaterial:Gas,
    WinAirGap,               !- Name
    AIR,                     !- Gas Type
    0.013;                   !- Thickness {m}

  MaterialProperty:GlazingSpectralData,
    TestSpectralDataSet,     !- Name
    0.300,0.000,0.045,0.045,
    0.310,0.000,0.044,0.044,
    0.320,0.000,0.044,0.044,
    0.330,0.000,0.042,0.042,
    0.340,0.000,0.041,0.041,
    0.350,0.000,0.040,0.040,
    0.360,0.009,0.040,0.040,
    0.370,0.120,0.040,0.040,
    0.380,0.492,0.051,0.051,
    0.390,0.782,0.070,0.070,
    0.400,0.856,0.075,0.075,
    0.410,0.858,0.075,0.075,
    0.420,0.858,0.075,0.075,
    0.430,0.860,0.075,0.075,
    0.440,0.861,0.075,0.075,
    0.450,0.871,0.075,0.075,
    0.460,0.880,0.076,0.076,
    0.470,0.883,0.075,0.075,
    0.480,0.887,0.076,0.076,
    0.490,0.890,0.075,0.075,
    0.500,0.890,0.075,0.075,
    0.510,0.891,0.075,0.075,
    0.520,0.887,0.075,0.075,
    0.530,0.890,0.075,0.075,
    0.540,0.883,0.074,0.074,
    0.550,0.888,0.074,0.074,
    0.560,0.882,0.074,0.074,
    0.570,0.881,0.074,0.074,
    0.580,0.865,0.071,0.071,
    0.590,0.858,0.070,0.070,
    0.600,0.865,0.070,0.070,
    0.610,0.856,0.070,0.070,
    0.620,0.845,0.070,0.070,
    0.630,0.837,0.070,0.070,
    0.640,0.827,0.069,0.069,
    0.650,0.820,0.067,0.067,
    0.660,0.807,0.067,0.067,
    0.670,0.798,0.065,0.065,
    0.680,0.791,0.065,0.065,
    0.690,0.781,0.065,0.065,
    0.700,0.768,0.064,0.064,
    0.710,0.761,0.064,0.064,
    0.720,0.744,0.062,0.062,
    0.730,0.713,0.064,0.064,
    0.740,0.703,0.062,0.062,
    0.750,0.694,0.061,0.061,
    0.760,0.685,0.061,0.061,
    0.770,0.675,0.060,0.060,
    0.780,0.667,0.060,0.060,
    0.790,0.655,0.060,0.060,
    0.800,0.646,0.059,0.059,
    0.810,0.638,0.059,0.059,
    0.820,0.629,0.057,0.057,
    0.830,0.623,0.057,0.057,
    0.840,0.614,0.056,0.056,
    0.850,0.608,0.056,0.056,
    0.860,0.601,0.055,0.055,
    0.870,0.597,0.054,0.054,
    0.880,0.592,0.054,0.054,
    0.890,0.587,0.054,0.054,
    0.900,0.582,0.055,0.055,
    0.950,0.568,0.051,0.051,
    1.000,0.562,0.051,0.051,
    1.050,0.556,0.050,0.050,
    1.100,0.563,0.051,0.051,
    1.150,0.556,0.050,0.050,
    1.200,0.547,0.050,0.050,
    1.250,0.577,0.051,0.051,
    1.300,0.598,0.054,0.054,
    1.350,0.608,0.055,0.055,
    1.400,0.603,0.052,0.052,
    1.450,0.614,0.055,0.055,
    1.500,0.648,0.057,0.057,
    1.550,0.680,0.059,0.059,
    1.600,0.699,0.060,0.060,
    1.650,0.706,0.060,0.060,
    1.700,0.570,0.051,0.051,
    1.750,0.585,0.051,0.051,
    1.800,0.637,0.055,0.055,
    1.850,0.655,0.057,0.057,
    1.900,0.637,0.057,0.057,
    1.950,0.634,0.057,0.057,
    2.000,0.634,0.057,0.057,
    2.050,0.586,0.052,0.052,
    2.100,0.588,0.054,0.054,
    2.150,0.597,0.054,0.054,
    2.200,0.576,0.051,0.051,
    2.250,0.404,0.045,0.045,
    2.300,0.179,0.037,0.037,
    2.350,0.219,0.037,0.037,
    2.400,0.240,0.039,0.039,
    2.450,0.200,0.040,0.040,
    2.500,0.214,0.039,0.039;

  Construction,
    EXTWALL80,               !- Name
    A1 - 1 IN STUCCO,        !- Outside Layer
    C4 - 4 IN COMMON BRICK,  !- Layer 2
    E1 - 3 / 4 IN PLASTER OR GYP BOARD;  !- Layer 3

  Construction,
    PARTITION06,             !- Name
    E1 - 3 / 4 IN PLASTER OR GYP BOARD,  !- Outside Layer
    C6 - 8 IN CLAY TILE,     !- Layer 2
    E1 - 3 / 4 IN PLASTER OR GYP BOARD;  !- Layer 3

  Construction,
    FLOOR SLAB 8 IN,         !- Name
    C10 - 8 IN HW CONCRETE;  !- Outside Layer

  Construction,
    ROOF34,                  !- Name
    E2 - 1 / 2 IN SLAG OR STONE,  !- Outside Layer
    E3 - 3 / 8 IN FELT AND MEMBRANE,  !- Layer 2
    C12 - 2 IN HW CONCRETE;  !- Layer 3

  Construction,
    CEILING:ZONE,            !- Name
    B5 - 1 IN DENSE INSULATION,  !- Outside Layer
    E1 - 3 / 4 IN PLASTER OR GYP BOARD;  !- Layer 2

  Construction,
    CEILING:ATTIC,           !- Name
    E1 - 3 / 4 IN PLASTER OR GYP BOARD,  !- Outside Layer
    B5 - 1 IN DENSE INSULATION;  !- Layer 2

  Construction,
    ELECTRO-CON-LIGHT,       !- Name
    ELECTRO GLASS LIGHT STATE,  !- Outside Layer
    WinAirGap,               !- Layer 2
    SPECTRAL GLASS INNER PANE;  !- Layer 3

  Construction,
    ELECTRO-CON-DARK,        !- Name
    ELECTRO GLASS DARK STATE,!- Outside Layer
    WinAirGap,               !- Layer 2
    SPECTRAL GLASS INNER PANE;  !- Layer 3

  Construction,
    DOOR-CON,                !- Name
    1.375in-Solid-Core;      !- Outside Layer

  Zone,
    West Zone,               !- Name
    0,                       !- Direction of Relative North {deg}
    0,                       !- X Origin {m}
    0,                       !- Y Origin {m}
    0,                       !- Z Origin {m}
    1,                       !- Type
    1,                       !- Multiplier
    autocalculate,           !- Ceiling Height {m}
    autocalculate;           !- Volume {m3}

  Zone,
    EAST ZONE,               !- Name
    0,                       !- Direction of Relative North {deg}
    0,                       !- X Origin {m}
    0,                       !- Y Origin {m}
    0,                       !- Z Origin {m}
    1,                       !- Type
    1,                       !- Multiplier
    autocalculate,           !- Ceiling Height {m}
    autocalculate;           !- Volume {m3}

  Zone,
    NORTH ZONE,              !- Name
    0,                       !- Direction of Relative North {deg}
    0,                       !- X Origin {m}
    0,                       !- Y Origin {m}
    0,                       !- Z Origin {m}
    1,                       !- Type
    1,                       !- Multiplier
    autocalculate,           !- Ceiling Height {m}
    autocalculate;           !- Volume {m3}

  Zone,
    ATTIC ZONE,              !- Name
    0,                       !- Direction of Relative North {deg}
    0,                       !- X Origin {m}
    0,                       !- Y Origin {m}
    0,                       !- Z Origin {m}
    1,                       !- Type
    1,                       !- Multiplier
    autocalculate,           !- Ceiling Height {m}
    autocalculate;           !- Volume {m3}

  GlobalGeometryRules,
    UpperLeftCorner,         !- Starting Vertex Position
    CounterClockWise,        !- Vertex Entry Direction
    World;                   !- Coordinate System

  BuildingSurface:Detailed,
    Zn001:Wall001,           !- Name
    Wall,                    !- Surface Type
    EXTWALL80,               !- Construction Name
    West Zone,               !- Zone Name
    ,                        !- Space Name
    Outdoors,                !- Outside Boundary Condition
    ,                        !- Outside Boundary Condition Object
    SunExposed,              !- Sun Exposure
    WindExposed,             !- Wind Exposure
    0.5000000,               !- View Factor to Ground
    4,                       !- Number of Vertices
    0,0,3.048000,  !- X,Y,Z ==> Vertex 1 {m}
    0,0,0,  !- X,Y,Z ==> Vertex 2 {m}
    6.096000,0,0,  !- X,Y,Z ==> Vertex 3 {m}
    6.096000,0,3.048000;  !- X,Y,Z ==> Vertex 4 {m}

  BuildingSurface:Detailed,
    Zn001:Wall002,           !- Name
    Wall,                    !- Surface Type
    EXTWALL80,               !- Construction Name
    West Zone,               !- Zone Name
    ,                        !- Space Name
    Outdoors,                !- Outside Boundary Condition
    ,                        !- Outside Boundary Condition Object
    SunExposed,              !- Sun Exposure
    WindExposed,             !- Wind Exposure
    0.5000000,               !- View Factor to Ground
    4,                       !- Number of Vertices
    0,6.096000,3.048000,  !- X,Y,Z ==> Vertex 1 {m}
    0,6.096000,0,  !- X,Y,Z ==> Vertex 2 {m}
    0,0,0,  !- X,Y,Z ==> Vertex 3 {m}
    0,0,3.048000;  !- X,Y,Z ==> Vertex 4 {m}

  BuildingSurface:Detailed,
    Zn001:Wall003,           !- Name
    Wall,                    !- Surface Type
    PARTITION06,             !- Construction Name
    West Zone,               !- Zone Name
    ,                        !- Space Name