!-Generator IDFEditor 1.51
!-Option OriginalOrderTop UseSpecialFormat

!-NOTE: All comments with '!-' are ignored by the IDFEditor and are generated automatically.
!-      Use '!' comments if they need to be retained when using the IDFEditor.

Output:Variable,*,Ca,Hourly;
Output:Variable,*,Cb,Hourly;
Output:Variable,*,Cc,Hourly;
Output:Variable,*,Cd,Hourly;
Output:Variable,*,Ce,Hourly;
Output:Variable,*,Cf,Hourly;
Output:Variable,*,Cg,Hourly;
Output:Variable,*,Ch,Hourly;
Output:Variable,*,Ci,Hourly;
Output:Variable,*,Cj,Hourly;
Output:Variable,*,Ck,Hourly;
Output:Variable,*,Cl,Hourly;

BuildingSurface:Detailed,
    Zn001:Flr001,            !- Name
    Floor,                   !- Surface Type
    FLOOR,                   !- Construction Name
    Main Zone,               !- Zone Name
    Ground,                  !- Outside Boundary Condition
    ,                        !- Outside Boundary Condition Object
    NoSun,                   !- Sun Exposure
    NoWind,                  !- Wind Exposure
    1.000000,                !- View Factor to Ground
    4,                       !- Number of Vertices
    30, 0.000000, 0.0,                  !- X,Y,Z  1 {m}
    0.000000, 0.000000, 0.0,            !- X,Y,Z  2 {m}
    0.000000, 75, 0.0,                  !- X,Y,Z  3 {m}
    30, 75, 0.0;                        !- X,Y,Z  4 {m}

Material,
    CONCRETE - DRIED SAND AND GRAVEL 4 IN,  !- Name
    MediumRough,             !- Roughness
    0.1000000,               !- Thickness {m}
    1.290000,                !- Conductivity {W/m-K}
    2242.580,                !- Density {kg/m3}
    830.00000,               !- Specific Heat {J/kg-K}
    0.9000000,               !- Thermal Absorptance
    0.6000000,               !- Solar Absorptance
    0.6000000;               !- Visible Absorptance

Lights,
    SPACE1-1 Lights 2,       !- Name
    Zone 2,                  !- Zone or ZoneList Name
    LIGHTS-1,                !- Schedule Name
    Watts/Area,              !- Design Level Calculation Method
    ,                        !- Lighting Level {W}
    11,                      !- Watts per Zone Floor Area {W/m2}
    ,                        !- Watts per Person {W/person}
    0.0,                     !- Return Air Fraction
    0.59,                    !- Fraction Radiant
    0.2,                     !- Fraction Visible
    1,                       !- Fraction Replaceable
    GeneralLights,           !- End-Use Subcategory
    No;                      !- Return Air Fraction Calculated from Plenum Temperature

ElectricEquipment,
    SPACE1-1 ElecEq 2,       !- Name
    Zone 2,                  !- Zone or ZoneList Name
    EQUIP-1,                 !- Schedule Name
    Watts/Area,              !- Design Level Calculation Method
    ,                        !- Design Level {W}
    7,                       !- Watts per Zone Floor Area {W/m2}
    ,                        !- Watts per Person {W/person}
    0,                       !- Fraction Latent
    0.3,                     !- Fraction Radiant
    0;                       !- Fraction Lost

BuildingSurface:Detailed,
    Zn002:Flr001,            !- Name
    Floor,                   !- Surface Type
    FLOOR,                   !- Construction Name
    Zone 2,                  !- Zone Name
    Ground,                  !- Outside Boundary Condition
    ,                        !- Outside Boundary Condition Object
    NoSun,                   !- Sun Exposure
    NoWind,                  !- Wind Exposure
    1.000000,                !- View Factor to Ground
    4,                       !- Number of Vertices
    30, 75, 0.0,                        !- X,Y,Z  1 {m}
    0.000000, 75, 0.0,                  !- X,Y,Z  2 {m}
    0.000000, 84, 0.0,                  !- X,Y,Z  3 {m}
    30, 84, 0.0;                        !- X,Y,Z  4 {m}

BuildingSurface:Detailed,
    Zn002:Roof001,           !- Name
    Roof,                    !- Surface Type
    nonres_roof,             !- Construction Name
    Zone 2,                  !- Zone Name
    Outdoors,                !- Outside Boundary Condition
    ,                        !- Outside Boundary Condition Object
    SunExposed,              !- Sun Exposure
    WindExposed,             !- Wind Exposure
    1.000000,                !- View Factor to Ground
    4,                       !- Number of Vertices
    30, 75, 4.572,                      !- X,Y,Z  1 {m}
    0.000000, 75, 4.572,                !- X,Y,Z  2 {m}
    0.000000, 84, 4.572,                !- X,Y,Z  3 {m}
    30, 84, 4.572;                      !- X,Y,Z  4 {m}

Zone,
    Zone 2,                  !- Name
    0,                       !- Direction of Relative North {deg}
    0, 0, 0,                            !- X,Y,Z  {m}
    1,                       !- Type
    1,                       !- Multiplier
    autocalculate,           !- Ceiling Height {m}
    autocalculate;           !- Volume {m3}

BuildingSurface:Detailed,
    Zn002:Wall001,           !- Name
    Wall,                    !- Surface Type
    R11,                     !- Construction Name
    Zone 2,                  !- Zone Name
    Outdoors,                !- Outside Boundary Condition
    ,                        !- Outside Boundary Condition Object
    SunExposed,              !- Sun Exposure
    WindExposed,             !- Wind Exposure
    0.5000000,               !- View Factor to Ground
    4,                       !- Number of Vertices
    30, 75, 4.572000,                   !- X,Y,Z  1 {m}
    30, 75, 0,                          !- X,Y,Z  2 {m}
    30, 84, 0,                          !- X,Y,Z  3 {m}
    30, 84, 4.572000;                   !- X,Y,Z  4 {m}

BuildingSurface:Detailed,
    Zn002:Wall002,           !- Name
    Wall,                    !- Surface Type
    R11,                     !- Construction Name
    Zone 2,                  !- Zone Name
    Outdoors,                !- Outside Boundary Condition
    ,                        !- Outside Boundary Condition Object
    SunExposed,              !- Sun Exposure
    WindExposed,             !- Wind Exposure
    0.5000000,               !- View Factor to Ground
    4,                       !- Number of Vertices
    0, 75, 4.572000,                    !- X,Y,Z  1 {m}
    0, 75, 0,                           !- X,Y,Z  2 {m}
    0, 84, 0,                           !- X,Y,Z  3 {m}
    0, 84, 4.572000;                    !- X,Y,Z  4 {m}

BuildingSurface:Detailed,
    Zn002:Wall003,           !- Name
    Wall,                    !- Surface Type
    PARTITION,               !- Construction Name
    Zone 2,                  !- Zone Name
    Surface,                 !- Outside Boundary Condition
    Zn001:Wall003,           !- Outside Boundary Condition Object
    NoSun,                   !- Sun Exposure
    NoWind,                  !- Wind Exposure
    0.5000000,               !- View Factor to Ground
    4,                       !- Number of Vertices
    30, 75, 4.572000,                   !- X,Y,Z  1 {m}
    30, 75, 0,                          !- X,Y,Z  2 {m}
    0, 75, 0,                           !- X,Y,Z  3 {m}
    0, 75, 4.572000;                    !- X,Y,Z  4 {m}

BuildingSurface:Detailed,
    Zn002:Wall004,           !- Name
    Wall,                    !- Surface Type
    R11,                     !- Construction Name
    Zone 2,                  !- Zone Name
    Outdoors,                !- Outside Boundary Condition
    ,                        !- Outside Boundary Condition Object
    SunExposed,              !- Sun Exposure
    WindExposed,             !- Wind Exposure
    0.5000000,               !- View Factor to Ground
    4,                       !- Number of Vertices
    30, 84, 4.572000,                   !- X,Y,Z  1 {m}
    30, 84, 0,                          !- X,Y,Z  2 {m}
    0, 84, 0,                           !- X,Y,Z  3 {m}
    0, 84, 4.572000;                    !- X,Y,Z  4 {m}

Construction,
    PARTITION,               !- Name
    E1 - 3 / 4 IN PLASTER OR GYP BOARD,  !- Outside Layer
    C6 - 8 IN CLAY TILE,     !- Layer 2
    E1 - 3 / 4 IN PLASTER OR GYP BOARD;  !- Layer 3

Material,
    E1 - 3 / 4 IN PLASTER OR GYP BOARD,  !- Name
    Smooth,                  !- Roughness
    1.9050000E-02,           !- Thickness {m}
    0.7264224,               !- Conductivity {W/m-K}
    1601.846,                !- Density {kg/m3}
    836.8000,                !- Specific Heat {J/kg-K}
    0.9000000,               !- Thermal Absorptance
    0.9200000,               !- Solar Absorptance
    0.9200000;               !- Visible Absorptance

Material,
    C6 - 8 IN CLAY TILE,     !- Name
    Smooth,                  !- Roughness
    0.2033016,               !- Thickness {m}
    0.5707605,               !- Conductivity {W/m-K}
    1121.292,                !- Density {kg/m3}
    836.8000,                !- Specific Heat {J/kg-K}
    0.9000000,               !- Thermal Absorptance
    0.8200000,               !- Solar Absorptance
    0.8200000;               !- Visible Absorptance

Schedule:Compact,
    Htg Clg,                 !- Name
    Any Number,              !- Schedule Type Limits Name
    Through: 12/31,          !- Field 1
    For: AllDays,            !- Field 2
    Until: 24:00, 22.22;     !- Field 4

ThermostatSetpoint:SingleHeatingOrCooling,
    Htg Clg,                 !- Name
    Htg Clg;                 !- Setpoint Temperature Schedule Name

Schedule:Compact,
    IceRink_ON,              !- Name
    On/Off,                  !- Schedule Type Limits Name
    Through: 1/15,           !- Field 1
    For: AllDays,            !- Field 2
    Until: 24:00, 1,         !- Field 4
    Through: 1/30,           !- Field 5
    For: AllDays,            !- Field 6
    Until: 24:00, 0,         !- Field 8
    Through: 4/15,           !- Field 9
    For: AllDays,            !- Field 10
    Until: 24:00, 1,         !- Field 12
    Through: 9/7,            !- Field 13
    For: AllDays,            !- Field 14
    Until: 24:00, 0,         !- Field 16
    Through: 11/1,           !- Field 17
    For: AllDays,            !- Field 18
    Until: 24:00, 1,         !- Field 20
    Through: 11/15,          !- Field 21
    For: AllDays,            !- Field 22
    Until: 24:00, 0,         !- Field 24
    Through: 12/31,          !- Field 25
    For: AllDays,            !- Field 26
    Until: 24:00, 1;         !- Field 28

ScheduleTypeLimits,
    Any Number;              !- Name

Material,
    IceRink - layer,         !- Name
    Smooth,                  !- Roughness
    0.0001,                  !- Thickness {m}
    0.17,                    !- Conductivity {W/m-K}
    1922.21,                 !- Density {kg/m3}
    1250,                    !- Specific Heat {J/kg-K}
    0.2,                     !- Thermal Absorptance
    0.7,                     !- Solar Absorptance
    0.7;                     !- Visible Absorptance

Schedule:Year,
    LightsYr,                !- Name
    Fraction,                !- Schedule Type Limits Name
    LightsWk,                !- Schedule:Week Name 1
    1,                       !- Start Month 1
    1,                       !- Start Day 1
    12,                      !- End Month 1
    31;                      !- End Day 1

Schedule:Day:Hourly,
    Lights,                  !- Name
    Fraction,                !- Schedule Type Limits Name
    0.18,                    !- Hour 1
    0.18,                    !- Hour 2
    0.18,                    !- Hour 3
    0.18,                    !- Hour 4
    0.18,                    !- Hour 5
    0.18,                    !- Hour 6
    0.23,                    !- Hour 7
    0.42,                    !- Hour 8
    0.77,                    !- Hour 9
    0.77,                    !- Hour 10
    0.77,                    !- Hour 11
    0.77,                    !- Hour 12
    0.77,                    !- Hour 13
    0.77,                    !- Hour 14
    0.77,                    !- Hour 15
    0.77,                    !- Hour 16
    0.77,                    !- Hour 17
    0.9,                     !- Hour 18
    0.9,                     !- Hour 19
    0.9,                     !- Hour 20
    0.9,                     !- Hour 21
    0.9,                     !- Hour 22
    0.18,                    !- Hour 23
    0.18;                    !- Hour 24

Schedule:Week:Daily,
    LightsWk,                !- Name
    Lights,                  !- Sunday Schedule:Day Name
    Lights,                  !- Monday Schedule:Day Name
    Lights,                  !- Tuesday Schedule:Day Name
    Lights,                  !- Wednesday Schedule:Day Name
    Lights,                  !- Thursday Schedule:Day Name
    Lights,                  !- Friday Schedule:Day Name
    Lights,                  !- Saturday Schedule:Day Name
    Lights,                  !- Holiday Schedule:Day Name
    Lights,                  !- SummerDesignDay Schedule:Day Name
    Lights,                  !- WinterDesignDay Schedule:Day Name
    Lights,                  !- CustomDay1 Schedule:Day Name
    Lights;                  !- CustomDay2 Schedule:Day Name

Output:Table:Monthly,
    Building Loads - Electric,  !- Name
    2,                       !- Digits After Decimal
    Zone Lights Electric Energy,  !- Variable or Meter 1 Name
    SumOrAverage,            !- Aggregation Type for Variable or Meter 1
    Zone Lights Electric Energy,  !- Variable or Meter 2 Name
    Maximum,                 !- Aggregation Type for Variable or Meter 2
    Zone Electric Equipment Electric Energy,  !- Variable or Meter 3 Name
    SumOrAverage,            !- Aggregation Type for Variable or Meter 3
    Zone Electric Equipment Electric Energy,  !- Variable or Meter 4 Name
    Maximum;                 !- Aggregation Type for Variable or Meter 4

Output:Variable,*,Zone Air Temperature,Hourly;
Output:Variable,*,Zone Ideal Loads Zone Total Heating Rate ,Hourly;
Output:Variable,*,Ideal Loads Zone Total Cooling Rate,Hourly;

Material,
    Water,                   !- Name
    VerySmooth,              !- Roughness
    0.0254,                  !- Thickness {m}
    0.598,                   !- Conductivity {W/m-K}
    999,                     !- Density {kg/m3}
    4128,                    !- Specific Heat {J/kg-K}
    0.9,                     !- Thermal Absorptance
    0.7,                     !- Solar Absorptance
    0.7;                     !- Visible Absorptance

Output:Variable,*,Qsrc,Hourly;
Output:Variable,*,current TH22,Hourly;
Output:Variable,*,previous TH22,Hourly;
Output:Variable,*,Effectiveness,Hourly;
Output:Variable,*,Rho_w,Hourly;
Output:Variable,*,Cp_w,Hourly;

Pump:VariableSpeed,
    Pump,                    !- Name
    Supply Inlet Node IR,    !- Inlet Node Name
    Supply Pump-Heating Node,!- Outlet Node Name
    0.005,                   !- Design Maximum Flow Rate {m3/s}
    300000,                  !- Design Pump Head {Pa}
    2250,                    !- Design Power Consumption {W}
    0.87,                    !- Motor Efficiency
    0.0,                     !- Fraction of Motor Inefficiencies to Fluid Stream
    0,                       !- Coefficient 1 of the Part Load Performance Curve
    1,                       !- Coefficient 2 of the Part Load Performance Curve
    0,                       !- Coefficient 3 of the Part Load Performance Curve
    0,                       !- Coefficient 4 of the Part Load Performance Curve
    0,                       !- Design Minimum Flow Rate {m3/s}
    INTERMITTENT;            !- Pump Control Type

DesignSpecification:OutdoorAir,
    SZ DSOA SPACE1-1,        !- Name
    sum,                     !- Outdoor Air Method
    0.00236,                 !- Outdoor Air Flow per Person {m3/s-person}
    0.000305,                !- Outdoor Air Flow per Zone Floor Area {m3/s-m2}
    0.0;                     !- Outdoor Air Flow per Zone {m3/s}

Sizing:Parameters,
    1.0,                     !- Heating Sizing Factor
    1.0;                     !- Cooling Sizing Factor

Sizing:Zone,
    Main Zone,               !- Zone or ZoneList Name
    SupplyAirTemperature,    !- Zone Cooling Design Supply Air Temperature Input Method
    14.,                     !- Zone Cooling Design Supply Air Temperature {C}
    ,                        !- Zone Cooling Design Supply Air Temperature Difference {deltaC}
    SupplyAirTemperature,    !- Zone Heating Design Supply Air Temperature Input Method
    50.,                     !- Zone Heating Design Supply Air Temperature {C}
    ,                        !- Zone Heating Design Supply Air Temperature Difference {deltaC}
    0.009,                   !- Zone Cooling Design Supply Air Humidity Ratio {kgWater/kgDryAir}
    0.004,                   !- Zone Heating Design Supply Air Humidity Ratio {kgWater/kgDryAir}
    SZ DSOA SPACE1-1,        !- Design Specification Outdoor Air Object Name
    0.0,                     !- Zone Heating Sizing Factor
    0.0,                     !- Zone Cooling Sizing Factor
    DesignDayWithLimit,      !- Cooling Design Air Flow Method
    ,                        !- Cooling Design Air Flow Rate {m3/s}
    ,                        !- Cooling Minimum Air Flow per Zone Floor Area {m3/s-m2}
    ,                        !- Cooling Minimum Air Flow {m3/s}
    ,                        !- Cooling Minimum Air Flow Fraction
    DesignDay,               !- Heating Design Air Flow Method
    ,                        !- Heating Design Air Flow Rate {m3/s}
    ,                        !- Heating Maximum Air Flow per Zone Floor Area {m3/s-m2}
    ,                        !- Heating Maximum Air Flow {m3/s}
    ,                        !- Heating Maximum Air Flow Fraction
    ,                        !- Design Specification Zone Air Distribution Object Name
    ,                        !- Account for Dedicated Outdoor Air System
    ,                        !- Dedicated Outdoor Air System Control Strategy
    ,                        !- Dedicated Outdoor Air Low Setpoint Temperature for Design {C}
    ;                        !- Dedicated Outdoor Air High Setpoint Temperature for Design {C}

ZoneControl:Thermostat,
    SPACE1-1 Control,        !- Name
    Main Zone,               !- Zone or ZoneList Name
    Zone Control Type Sched, !- Control Type Schedule Name
    ThermostatSetpoint:SingleCooling,  !- Control 1 Object Type
    CoolingSetPoint,         !- Control 1 Name
    ThermostatSetpoint:SingleHeating,  !- Control 2 Object Type
    HeatingSetpoint,         !- Control 2 Name
    ThermostatSetpoint:DualSetpoint,  !- Control 3 Object Type
    DualSetPoint,            !- Control 3 Name
    ThermostatSetpoint:SingleHeatingOrCooling,  !- Control 4 Object Type
    Htg Clg;                 !- Control 4 Name

ThermostatSetpoint:SingleHeating,
    HeatingSetpoint,         !- Name
    Htg-SetP-Sch;            !- Setpoint Temperature Schedule Name

ThermostatSetpoint:SingleCooling,
    CoolingSetpoint,         !- Name
    Clg-SetP-Sch;            !- Setpoint Temperature Schedule Name

ThermostatSetpoint:DualSetpoint,
    DualSetPoint,            !- Name
    Htg-SetP-Sch,            !- Heating Setpoint Temperature Schedule Name
    Clg-SetP-Sch;            !- Cooling Setpoint Temperature Schedule Name

ZoneHVAC:IdealLoadsAirSystem,
    ZONE 1 Ideal Loads,      !- Name
    ,                        !- Availability Schedule Name
    SPACE1-1 In Node,        !- Zone Supply Air Node Name
    SPACE1-1 Ex Node,        !- Zone Exhaust Air Node Name
    ,                        !- System Inlet Air Node Name
    35,                      !- Maximum Heating Supply Air Temperature {C}
    13,                      !- Minimum Cooling Supply Air Temperature {C}
    0.015,                   !- Maximum Heating Supply Air Humidity Ratio {kgWater/kgDryAir}
    0.009,                   !- Minimum Cooling Supply Air Humidity Ratio {kgWater/kgDryAir}
    NoLimit,                 !- Heating Limit
    autosize,                !- Maximum Heating Air Flow Rate {m3/s}
    ,                        !- Maximum Sensible Heating Capacity {W}
    NoLimit,                 !- Cooling Limit
    autosize,                !- Maximum Cooling Air Flow Rate {m3/s}
    ,                        !- Maximum Total Cooling Capacity {W}
    ,                        !- Heating Availability Schedule Name
    ,                        !- Cooling Availability Schedule Name
    ConstantSupplyHumidityRatio,  !- Dehumidification Control Type
    ,                        !- Cooling Sensible Heat Ratio {dimensionless}
    ConstantSupplyHumidityRatio,  !- Humidification Control Type
    ,                        !- Design Specification Outdoor Air Object Name
    ,                        !- Outdoor Air Inlet Node Name
    ,                        !- Demand Controlled Ventilation Type
    ,                        !- Outdoor Air Economizer Type
    ,                        !- Heat Recovery Type
    ,                        !- Sensible Heat Recovery Effectiveness {dimensionless}
    ;                        !- Latent Heat Recovery Effectiveness {dimensionless}

ZoneHVAC:EquipmentList,
    Main Zone Equipment,     !- Name
    SequentialLoad,          !- Load Distribution Scheme
    ZoneHVAC:IdealLoadsAirSystem,  !- Zone Equipment 1 Object Type
    ZONE 1 Ideal Loads,      !- Zone Equipment 1 Name
    1,                       !- Zone Equipment 1 Cooling Sequence
    1,                       !- Zone Equipment 1 Heating or No-Load Sequence
    ,                        !- Zone Equipment 1 Sequential Cooling Fraction Schedule Name
    ;                        !- Zone Equipment 1 Sequential Heating Fraction Schedule Name

ZoneHVAC:EquipmentConnections,
    Main Zone,               !- Zone Name
    Main Zone Equipment,     !- Zone Conditioning Equipment List Name
    SPACE1-1 In Node,        !- Zone Air Inlet Node or NodeList Name
    SPACE1-1 Ex Node,        !- Zone Air Exhaust Node or NodeList Name
    SPACE1-1 Node,           !- Zone Air Node Name
    Ret Node 1;              !- Zone Return Air Node or NodeList Name

Schedule:Compact,
    Htg-SetP-Sch,            !- Name
    Temperature,             !- Schedule Type Limits Name
    Through: 12/31,          !- Field 1
    For: SummerDesignDay,    !- Field 2
    Until: 24:00, 16.7,      !- Field 4
    For: WinterDesignDay,    !- Field 5
    Until: 24:00, 22.2,      !- Field 7
    For: WeekDays,           !- Field 8
    Until: 6:00, 16.7,       !- Field 10
    Until: 20:00, 22.2,      !- Field 12
    Until: 24:00, 16.7,      !- Field 14
    For: WeekEnds Holiday,   !- Field 15
    Until: 24:00, 16.7,      !- Field 17
    For: AllOtherDays,       !- Field 18
    Until: 24:00, 16.7;      !- Field 20

Schedule:Compact,
    Clg-SetP-Sch,            !- Name
    Temperature,             !- Schedule Type Limits Name
    Through: 12/31,          !- Field 1
    For: SummerDesignDay,    !- Field 2
    Until: 24:00, 23.9,      !- Field 4
    For: WinterDesignDay,    !- Field 5
    Until: 24:00, 29.4,      !- Field 7
    For: WeekDays,           !- Field 8
    Until: 6:00, 29.4,       !- Field 10
    Until: 20:00, 23.9,      !- Field 12
    Until: 24:00, 29.4,      !- Field 14
    For: WeekEnds Holiday,   !- Field 15
    Until: 24:00, 29.4,      !- Field 17
    For: AllOtherDays,       !- Field 18
    Until: 24:00, 29.4;      !- Field 20

ScheduleTypeLimits,
    Control Type,            !- Name
    0,                       !- Lower Limit Value
    4,                       !- Upper Limit Value
    DISCRETE;                !- Numeric Type

NodeList,
    Plenum Ex Node List,     !- Name
    Plenum Ex Node 2;        !- Node 1 Name

PlantLoop,
    Main Loop,               !- Name
    UserDefinedFluidType,    !- Fluid Type
    EthyleneGlycolConcentration,  !- User Defined Fluid Type
    Main Loop Operation,     !- Plant Equipment Operation Scheme Name
    Supply Outlet Node IR,   !- Loop Temperature Setpoint Node Name
    0,                       !- Maximum Loop Temperature {C}
    -40,                     !- Minimum Loop Temperature {C}
    1000,                    !- Maximum Loop Flow Rate {m3/s}
    0,                       !- Minimum Loop Flow Rate {m3/s}
    autocalculate,           !- Plant Loop Volume {m3}
    Supply Inlet Node IR,    !- Plant Side Inlet Node Name
    Supply Outlet Node IR,   !- Plant Side Outlet Node Name
    Supply Branches,         !- Plant Side Branch List Name
    Supply Connectors,       !- Plant Side Connector List Name
    Demand Inlet Node,       !- Demand Side Inlet Node Name
    Demand Outlet Node,      !- Demand Side Outlet Node Name
    Demand Branches,         !- Demand Side Branch List Name
    Demand Connectors,       !- Demand Side Connector List Name
    OPTIMAL;                 !- Load Distribution Scheme

NodeList,
    Main Loop Setpoint Node List,  !- Name
    Supply Outlet Node IR;   !- Node 1 Name

People,
    SPACE1-1 People 1,       !- Name
    Main Zone,               !- Zone or ZoneList Name
    OCCUPY-1,                !- Number of People Schedule Name
    people,                  !- Number of People Calculation Method
    11,                      !- Number of People
    ,                        !- People per Zone Floor Area {person/m2}
    ,                        !- Zone Floor Area per Person {m2/person}
    0.3,                     !- Fraction Radiant
    ,                        !- Sensible Heat Fraction
    ActSchd;                 !- Activity Level Schedule Name

Schedule:Compact,
    OCCUPY-1,                !- Name
    Fraction,                !- Schedule Type Limits Name
    Through: 12/31,          !- Field 1
    For: WeekDays SummerDesignDay CustomDay1 CustomDay2,  !- Field 2
    Until: 8:00, 0.0,        !- Field 4
    Until: 11:00, 1.00,      !- Field 6
    Until: 12:00, 0.80,      !- Field 8
    Until: 13:00, 0.40,      !- Field 10
    Until: 14:00, 0.80,      !- Field 12
    Until: 18:00, 1.00,      !- Field 14
    Until: 19:00, 0.50,      !- Field 16
    Until: 24:00, 0.0,       !- Field 18
    For: Weekends WinterDesignDay Holiday,  !- Field 19
    Until: 24:00, 0.0;       !- Field 21

Schedule:Compact,
    ActSchd,                 !- Name
    Any Number,              !- Schedule Type Limits Name
    Through: 12/31,          !- Field 1
    For: AllDays,            !- Field 2
    Until: 24:00, 117.239997864;
                             !- Field 4

Lights,
    SPACE1-1 Lights 1,       !- Name
    Main Zone,               !- Zone or ZoneList Name
    LIGHTS-1,                !- Schedule Name
    Watts/Area,              !- Design Level Calculation Method
    ,                        !- Lighting Level {W}
    11,                      !- Watts per Zone Floor Area {W/m2}
    ,                        !- Watts per Person {W/person}
    0.0,                     !- Return Air Fraction
    0.59,                    !- Fraction Radiant
    0.2,                     !- Fraction Visible
    1,                       !- Fraction Replaceable
    GeneralLights,           !- End-Use Subcategory
    No;                      !- Return Air Fraction Calculated from Plenum Temperature

Schedule:Compact,
    LIGHTS-1,                !- Name
    Fraction,                !- Schedule Type Limits Name
    Through: 12/31,          !- Field 1
    For: WeekDays SummerDesignDay CustomDay1 CustomDay2,  !- Field 2
    Until: 8:00, 0.05,       !- Field 4
    Until: 9:00, .1,         !- Field 6
    Until: 10:00, .75,       !- Field 8
    Until: 11:00, .75,       !- Field 10
    Until: 12:00, .75,       !- Field 12
    Until: 13:00, .75,       !- Field 14
    Until: 14:00, .75,       !- Field 16
    Until: 18:00, 1.00,      !- Field 18
    Until: 19:00, 1,         !- Field 20
    Until: 21:00, 1,         !- Field 22
    Until: 24:00, 1,         !- Field 24
    For: Weekends WinterDesignDay Holiday,  !- Field 25
    Until: 24:00, .75;       !- Field 27

ElectricEquipment,
    SPACE1-1 ElecEq 1,       !- Name
    Main Zone,               !- Zone or ZoneList Name
    EQUIP-1,                 !- Schedule Name
    Watts/Area,              !- Design Level Calculation Method
    ,                        !- Design Level {W}
    3,                       !- Watts per Zone Floor Area {W/m2}
    ,                        !- Watts per Person {W/person}
    0,                       !- Fraction Latent
    0.3,                     !- Fraction Radiant
    0;                       !- Fraction Lost

Schedule:Compact,
    EQUIP-1,                 !- Name
    Fraction,                !- Schedule Type Limits Name
    Through: 12/31,          !- Field 1
    For: WeekDays SummerDesignDay CustomDay1 CustomDay2,  !- Field 2
    Until: 8:00, 0.02,       !- Field 4
    Until: 9:00, 0.4,        !- Field 6
    Until: 14:00, .75,       !- Field 8
    Until: 15:00, 1,         !- Field 10
    Until: 16:00, 1,         !- Field 12
    Until: 18:00, 1,         !- Field 14
    Until: 20:00, 0.3,       !- Field 16
    Until: 24:00, 0.02,      !- Field 18
    For: Weekends WinterDesignDay Holiday,  !- Field 19
    Until: 24:00, .8;        !- Field 21

Construction,
    nonres_roof,             !- Name
    F08 Metal roof surface,  !- Outside Layer
    Nonres_Roof_Insulation,  !- Layer 2
    1/2" Gyp;                !- Layer 3

Material,
    F08 Metal roof surface,  !- Name
    Smooth,                  !- Roughness
    0.0008,                  !- Thickness {m}
    45.28,                   !- Conductivity {W/m-K}
    7824,                    !- Density {kg/m3}
    500,                     !- Specific Heat {J/kg-K}
    0.9,                     !- Thermal Absorptance
    0.11;                    !- Solar Absorptance

Material:NoMass,
    Nonres_Roof_Insulation,  !- Name
    MediumSmooth,            !- Roughness
    4.62235136068181,        !- Thermal Resistance {m2-K/W}
    0.9,                     !- Thermal Absorptance
    0.7,                     !- Solar Absorptance
    0.7;                     !- Visible Absorptance

Output:Variable,*,Zone Mean Air Temperature,Hourly;
Output:Variable,*,Qsrc after HB update,Hourly;

BranchList,
    Supply Branches,         !- Name