! IndEvapCoolerRTUoffice.idf
!
! Basic file description: Baseline small office building with special research roof top units
!
! Highlights: Demonstration/Test of the RD&D Special Indirect Evaporative Cooler
!
! Simulation Location/Run: Phoenix Arizona, design days sizing, annual energy
!
! Building:  The building modeled is a baseline commercial office building of 20,000 ft2 or 1,858 m2.
!         The building has two floors with the first having a slab on grade floor.
!         The second story has a flat built-up roof.  The model has 5 occupied zones per floor with
!         and additional drop ceiling return air plenum zone associated with each. (20 zones total)
!         Glazing fraction is 40% with glazings arranged in continuous bands whose sills are 1 m.
!         above the floor. The exterior walls are precast stone with metal stud framing.
!         Wall and roof insulation and glazing properties were developed from ASHRAE 90.1-2001
!         (Table B-5 for Phoenix) and roughly follow the future informational Appendix G.
!
! Internal gains description:
!         Schedules for building operation are year round with roughly 7am to 7pm operation,
!         except for holidays. Internal gains are set to typical levels for lighting (11 W/m2)
!         and receptacle loads (10.5 W/m2). Occupant density is set at 9 people per 100 m2.
!         Off-hour infiltration is set at 0.4 ACH. Outside air ventilation rates are set at
!         twice the requirements of ASHRAE 62 at 20 liters per second per person
!
! HVAC:   The HVAC systems model rooftop package units where the Indirect Evaporative Coolers are
!         located before DX coils. There are ten package units, one for each occupied zone.
!         Package units have DX cooling coils, gas heating coils, outside air mixers and are autosized.
!         The RDDSpecial indirect evaporative coolers are controlled to avoid over cooling and reheat.
!         Systems are set to Night Cycle during setup/setback.
!

  Version,24.1;

  Timestep,6;

  SurfaceConvectionAlgorithm:Inside,TARP;

  SurfaceConvectionAlgorithm:Outside,DOE-2;

  HeatBalanceAlgorithm,ConductionTransferFunction;

  ShadowCalculation,
    PolygonClipping,         !- Shading Calculation Method
    Periodic,                !- Shading Calculation Update Frequency Method
    20;                      !- Shading Calculation Update Frequency

  SimulationControl,
    YES,                     !- Do Zone Sizing Calculation
    YES,                     !- Do System Sizing Calculation
    No,                      !- Do Plant Sizing Calculation
    YES,                     !- Run Simulation for Sizing Periods
    No,                      !- Run Simulation for Weather File Run Periods
    No,                      !- Do HVAC Sizing Simulation for Sizing Periods
    1;                       !- Maximum Number of HVAC Sizing Simulation Passes

  RunPeriod,
    Run Period 1,            !- Name
    1,                       !- Begin Month
    1,                       !- Begin Day of Month
    ,                        !- Begin Year
    12,                      !- End Month
    31,                      !- End Day of Month
    ,                        !- End Year
    Tuesday,                 !- Day of Week for Start Day
    No,                      !- Use Weather File Holidays and Special Days
    No,                      !- Use Weather File Daylight Saving Period
    Yes,                     !- Apply Weekend Holiday Rule
    No,                      !- Use Weather File Rain Indicators
    No;                      !- Use Weather File Snow Indicators

  ! PHOENIX_AZ_USA Annual Heating Design Conditions Wind Speed=2m/s Wind Dir=120
  ! Coldest Month=December
  ! PHOENIX_AZ_USA Annual Heating 99.6%, MaxDB=2.9°C

  SizingPeriod:DesignDay,
    PHOENIX Ann Htg 99.6% Condns DB,  !- Name
    12,                      !- Month
    21,                      !- Day of Month
    WinterDesignDay,         !- Day Type
    2.9,                     !- Maximum Dry-Bulb Temperature {C}
    0.0,                     !- Daily Dry-Bulb Temperature Range {deltaC}
    ,                        !- Dry-Bulb Temperature Range Modifier Type
    ,                        !- Dry-Bulb Temperature Range Modifier Day Schedule Name
    Wetbulb,                 !- Humidity Condition Type
    2.9,                     !- Wetbulb or DewPoint at Maximum Dry-Bulb {C}
    ,                        !- Humidity Condition Day Schedule Name
    ,                        !- Humidity Ratio at Maximum Dry-Bulb {kgWater/kgDryAir}
    ,                        !- Enthalpy at Maximum Dry-Bulb {J/kg}
    ,                        !- Daily Wet-Bulb Temperature Range {deltaC}
    97318.,                  !- Barometric Pressure {Pa}
    2,                       !- Wind Speed {m/s}
    120,                     !- Wind Direction {deg}
    No,                      !- Rain Indicator
    No,                      !- Snow Indicator
    No,                      !- Daylight Saving Time Indicator
    ASHRAEClearSky,          !- Solar Model Indicator
    ,                        !- Beam Solar Day Schedule Name
    ,                        !- Diffuse Solar Day Schedule Name
    ,                        !- ASHRAE Clear Sky Optical Depth for Beam Irradiance (taub) {dimensionless}
    ,                        !- ASHRAE Clear Sky Optical Depth for Diffuse Irradiance (taud) {dimensionless}
    0.00;                    !- Sky Clearness

 ! PHOENIX Annual Cooling Design Conditions Wind Speed=4.1m/s Wind Dir=270
  ! Hottest Month=July
  ! PHOENIX_AZ_USA Annual Cooling (DB=>MWB) .4%, MaxDB=43.4°C MWB=21.1°C

  SizingPeriod:DesignDay,
    PHOENIX Ann Clg .4% Condns DB=>MWB,  !- Name
    7,                       !- Month
    21,                      !- Day of Month
    SummerDesignDay,         !- Day Type
    43.4,                    !- Maximum Dry-Bulb Temperature {C}
    12.3,                    !- Daily Dry-Bulb Temperature Range {deltaC}
    ,                        !- Dry-Bulb Temperature Range Modifier Type
    ,                        !- Dry-Bulb Temperature Range Modifier Day Schedule Name
    Wetbulb,                 !- Humidity Condition Type
    21.1,                    !- Wetbulb or DewPoint at Maximum Dry-Bulb {C}
    ,                        !- Humidity Condition Day Schedule Name
    ,                        !- Humidity Ratio at Maximum Dry-Bulb {kgWater/kgDryAir}
    ,                        !- Enthalpy at Maximum Dry-Bulb {J/kg}
    ,                        !- Daily Wet-Bulb Temperature Range {deltaC}
    97318.,                  !- Barometric Pressure {Pa}
    4.1,                     !- Wind Speed {m/s}
    270,                     !- Wind Direction {deg}
    No,                      !- Rain Indicator
    No,                      !- Snow Indicator
    No,                      !- Daylight Saving Time Indicator
    ASHRAEClearSky,          !- Solar Model Indicator
    ,                        !- Beam Solar Day Schedule Name
    ,                        !- Diffuse Solar Day Schedule Name
    ,                        !- ASHRAE Clear Sky Optical Depth for Beam Irradiance (taub) {dimensionless}
    ,                        !- ASHRAE Clear Sky Optical Depth for Diffuse Irradiance (taud) {dimensionless}
    1.00;                    !- Sky Clearness

  RunPeriodControl:DaylightSavingTime,
    1st Sunday in April,     !- Start Date
    Last Sunday in October;  !- End Date

  RunPeriodControl:SpecialDays,
    New Years Day,           !- Name
    January 1,               !- Start Date
    1,                       !- Duration {days}
    Holiday;                 !- Special Day Type

  RunPeriodControl:SpecialDays,
    Veterans Day,            !- Name
    November 11,             !- Start Date
    1,                       !- Duration {days}
    Holiday;                 !- Special Day Type

  RunPeriodControl:SpecialDays,
    Christmas,               !- Name
    December 25,             !- Start Date
    1,                       !- Duration {days}
    Holiday;                 !- Special Day Type

  RunPeriodControl:SpecialDays,
    Independence Day,        !- Name
    July 4,                  !- Start Date
    1,                       !- Duration {days}
    Holiday;                 !- Special Day Type

  RunPeriodControl:SpecialDays,
    MLK Day,                 !- Name
    3rd Monday in January,   !- Start Date
    1,                       !- Duration {days}
    Holiday;                 !- Special Day Type

  RunPeriodControl:SpecialDays,
    Presidents Day,          !- Name
    3rd Monday in February,  !- Start Date
    1,                       !- Duration {days}
    Holiday;                 !- Special Day Type

  RunPeriodControl:SpecialDays,
    Memorial Day,            !- Name
    Last Monday in May,      !- Start Date
    1,                       !- Duration {days}
    Holiday;                 !- Special Day Type

  RunPeriodControl:SpecialDays,
    Labor Day,               !- Name
    1st Monday in September, !- Start Date
    1,                       !- Duration {days}
    Holiday;                 !- Special Day Type

  RunPeriodControl:SpecialDays,
    Columbus Day,            !- Name
    2nd Monday in October,   !- Start Date
    1,                       !- Duration {days}
    Holiday;                 !- Special Day Type

  RunPeriodControl:SpecialDays,
    Thanksgiving,            !- Name
    4th Thursday in November,!- Start Date
    1,                       !- Duration {days}
    Holiday;                 !- Special Day Type

  Site:Location,
    Phoenix Intl Airport,    !- Name
    33.43,                   !- Latitude {deg}
    -112.02,                 !- Longitude {deg}
    -7,                      !- Time Zone {hr}
    337;                     !- Elevation {m}

  Site:GroundTemperature:BuildingSurface,20.39,20.38,20.37,20.32,22.22,22.11,21.99,22.20,22.34,20.47,20.35,20.37;

  Sizing:Parameters,
    1.15,                    !- Heating Sizing Factor
    1.15,                    !- Cooling Sizing Factor
    ;                        !- Timesteps in Averaging Window

  Material,
    INS-wall-R_13,           !- Name
    MediumRough,             !- Roughness
    0.0812,                  !- Thickness {m}
    0.045,                   !- Conductivity {W/m-K}
    265,                     !- Density {kg/m3}
    836.8,                   !- Specific Heat {J/kg-K}
    0.9,                     !- Thermal Absorptance
    0.7,                     !- Solar Absorptance
    0.7;                     !- Visible Absorptance

  Material,
    GP01 1/2  GYPSUM,        !- Name
    Smooth,                  !- Roughness
    0.01271,                 !- Thickness {m}
    0.16,                    !- Conductivity {W/m-K}
    800,                     !- Density {kg/m3}
    1090,                    !- Specific Heat {J/kg-K}
    0.9,                     !- Thermal Absorptance
    0.7,                     !- Solar Absorptance
    0.7;                     !- Visible Absorptance

  Material,
    ROOFING - BUILT UP ROOFING - 3 / 8 IN,  !- Name
    VeryRough,               !- Roughness
    9.4999997E-03,           !- Thickness {m}
    0.1600000,               !- Conductivity {W/m-K}
    1121.290,                !- Density {kg/m3}
    1460.000,                !- Specific Heat {J/kg-K}
    0.9000000,               !- Thermal Absorptance
    0.7000000,               !- Solar Absorptance
    0.7000000;               !- Visible Absorptance

  Material,
    INS-Roof-R_15,           !- Name
    MediumRough,             !- Roughness
    0.1295,                  !- Thickness {m}
    0.049,                   !- Conductivity {W/m-K}
    265,                     !- Density {kg/m3}
    836.8,                   !- Specific Heat {J/kg-K}
    0.9,                     !- Thermal Absorptance
    0.7,                     !- Solar Absorptance
    0.7;                     !- Visible Absorptance

  Material,
    MAT-METAL,               !- Name
    MediumSmooth,            !- Roughness
    0.001524,                !- Thickness {m}
    45.006,                  !- Conductivity {W/m-K}
    7680,                    !- Density {kg/m3}
    418.4,                   !- Specific Heat {J/kg-K}
    0.9,                     !- Thermal Absorptance
    0.7,                     !- Solar Absorptance
    0.7;                     !- Visible Absorptance

  Material,
    MAT-CC05 8  HW CONCRETE, !- Name
    Rough,                   !- Roughness
    0.20321,                 !- Thickness {m}
    1.311,                   !- Conductivity {W/m-K}
    2240,                    !- Density {kg/m3}
    836.8,                   !- Specific Heat {J/kg-K}
    0.9,                     !- Thermal Absorptance
    0.7,                     !- Solar Absorptance
    0.7;                     !- Visible Absorptance

  Material,
    AC02,                    !- Name
    MediumSmooth,            !- Roughness
    1.2700000E-02,           !- Thickness {m}
    5.7000000E-02,           !- Conductivity {W/m-K}
    288.0000,                !- Density {kg/m3}
    1339.000,                !- Specific Heat {J/kg-K}
    0.9000000,               !- Thermal Absorptance
    0.7000000,               !- Solar Absorptance
    0.7000000;               !- Visible Absorptance

  Material,
    MAT-CC05 4  MW CONCRETE, !- Name
    Rough,                   !- Roughness
    0.1000,                  !- Thickness {m}
    0.858,                   !- Conductivity {W/m-K}
    1968,                    !- Density {kg/m3}
    836.8,                   !- Specific Heat {J/kg-K}
    0.9,                     !- Thermal Absorptance
    0.7,                     !- Solar Absorptance
    0.7;                     !- Visible Absorptance

  Material:NoMass,
    MAT-SHEATH,              !- Name
    Rough,                   !- Roughness
    0.36256,                 !- Thermal Resistance {m2-K/W}
    0.9,                     !- Thermal Absorptance
    0.7,                     !- Solar Absorptance
    0.7;                     !- Visible Absorptance

  Material:NoMass,
    CP02 CARPET PAD,         !- Name
    VeryRough,               !- Roughness
    0.21648,                 !- Thermal Resistance {m2-K/W}
    0.9,                     !- Thermal Absorptance
    0.7,                     !- Solar Absorptance
    0.7;                     !- Visible Absorptance

  WindowMaterial:Glazing,
    1334 Grey_60.vgs,        !- Name
    SpectralAverage,         !- Optical Data Type
    ,                        !- Window Glass Spectral Data Set Name
    0.0057,                  !- Thickness {m}
    0.5,                     !- Solar Transmittance at Normal Incidence
    0.051,                   !- Front Side Solar Reflectance at Normal Incidence
    0.051,                   !- Back Side Solar Reflectance at Normal Incidence
    0.465,                   !- Visible Transmittance at Normal Incidence
    0.053,                   !- Front Side Visible Reflectance at Normal Incidence
    0.053,                   !- Back Side Visible Reflectance at Normal Incidence
    0,                       !- Infrared Transmittance at Normal Incidence
    0.84,                    !- Front Side Infrared Hemispherical Emissivity
    0.84,                    !- Back Side Infrared Hemispherical Emissivity
    1.0;                     !- Conductivity {W/m-K}

  WindowMaterial:Glazing,
    703 B220.AFG,            !- Name
    SpectralAverage,         !- Optical Data Type
    ,                        !- Window Glass Spectral Data Set Name
    0.0058,                  !- Thickness {m}
    0.125,                   !- Solar Transmittance at Normal Incidence
    0.401,                   !- Front Side Solar Reflectance at Normal Incidence
    0.102,                   !- Back Side Solar Reflectance at Normal Incidence
    0.178,                   !- Visible Transmittance at Normal Incidence
    0.326,                   !- Front Side Visible Reflectance at Normal Incidence
    0.162,                   !- Back Side Visible Reflectance at Normal Incidence
    0,                       !- Infrared Transmittance at Normal Incidence
    0.478,                   !- Front Side Infrared Hemispherical Emissivity
    0.84,                    !- Back Side Infrared Hemispherical Emissivity
    1.0;                     !- Conductivity {W/m-K}

  Construction,
    North_window,            !- Name
    1334 Grey_60.vgs;        !- Outside Layer

  Construction,
    nonnorth_window,         !- Name
    703 B220.AFG;            !- Outside Layer

  Construction,
    Ext-wall,                !- Name
    MAT-SHEATH,              !- Outside Layer
    INS-wall-R_13,           !- Layer 2
    GP01 1/2  GYPSUM;        !- Layer 3

  Construction,
    Int-Wall,                !- Name
    GP01 1/2  GYPSUM,        !- Outside Layer
    INS-wall-R_13,           !- Layer 2
    GP01 1/2  GYPSUM;        !- Layer 3

  Construction,
    Roof,                    !- Name
    ROOFING - BUILT UP ROOFING - 3 / 8 IN,  !- Outside Layer
    INS-Roof-R_15,           !- Layer 2
    MAT-METAL;               !- Layer 3

  Construction,
    Ext-slab,                !- Name
    MAT-CC05 8  HW CONCRETE, !- Outside Layer
    CP02 CARPET PAD;         !- Layer 2

  Construction,
    DropCeiling,             !- Name
    AC02;                    !- Outside Layer

  Construction,
    INT-FLOOR-TOPSIDE,       !- Name
    MAT-CC05 4  MW CONCRETE, !- Outside Layer
    CP02 CARPET PAD;         !- Layer 2

  Construction,
    INT-FLOOR-UNDERSIDE,     !- Name
    CP02 CARPET PAD,         !- Outside Layer
    MAT-CC05 4  MW CONCRETE; !- Layer 2

  GlobalGeometryRules,
    UpperLeftCorner,         !- Starting Vertex Position
    CounterClockWise,        !- Vertex Entry Direction
    Relative;                !- Coordinate System

  Zone,
    ZN1_Fl1_S_Space,         !- Name
    0,                       !- Direction of Relative North {deg}
    0.000,                   !- X Origin {m}
    0.000,                   !- Y Origin {m}
    0.000,                   !- Z Origin {m}
    1,                       !- Type
    1,                       !- Multiplier
    3.658,                   !- Ceiling Height {m}
    433.287;                 !- Volume {m3}

  Zone,
    ZN2_Fl1_S_Plen,          !- Name
    0,                       !- Direction of Relative North {deg}
    0.000,                   !- X Origin {m}
    0.000,                   !- Y Origin {m}
    3.658,                   !- Z Origin {m}
    1,                       !- Type
    1,                       !- Multiplier
    0.914,                   !- Ceiling Height {m}
    108.262;                 !- Volume {m3}

  Zone,
    ZN3_Fl1_E_Space,         !- Name
    0,                       !- Direction of Relative North {deg}
    25.908,                  !- X Origin {m}
    4.572,                   !- Y Origin {m}
    0.000,                   !- Z Origin {m}
    1,                       !- Type
    1,                       !- Multiplier
    3.658,                   !- Ceiling Height {m}
    433.287;                 !- Volume {m3}

  Zone,
    ZN4_Fl1_E_Plen,          !- Name
    0,                       !- Direction of Relative North {deg}
    25.908,                  !- X Origin {m}
    4.572,                   !- Y Origin {m}
    3.658,                   !- Z Origin {m}
    1,                       !- Type
    1,                       !- Multiplier
    0.914,                   !- Ceiling Height {m}
    108.262;                 !- Volume {m3}

  Zone,
    ZN5_Fl1_W_Space,         !- Name
    0,                       !- Direction of Relative North {deg}
    0.000,                   !- X Origin {m}
    0.000,                   !- Y Origin {m}
    0.000,                   !- Z Origin {m}
    1,                       !- Type
    1,                       !- Multiplier
    3.658,                   !- Ceiling Height {m}
    433.287;                 !- Volume {m3}

  Zone,
    ZN6_Fl1_W_Plen,          !- Name
    0,                       !- Direction of Relative North {deg}
    0.000,                   !- X Origin {m}
    0.000,                   !- Y Origin {m}
    3.658,                   !- Z Origin {m}
    1,                       !- Type
    1,                       !- Multiplier
    0.914,                   !- Ceiling Height {m}
    108.262;                 !- Volume {m3}

  Zone,
    ZN7_Fl1_N_Space,         !- Name
    0,                       !- Direction of Relative North {deg}
    4.572,                   !- X Origin {m}
    25.908,                  !- Y Origin {m}
    0.000,                   !- Z Origin {m}
    1,                       !- Type
    1,                       !- Multiplier
    3.658,                   !- Ceiling Height {m}
    433.287;                 !- Volume {m3}

  Zone,
    ZN8_Fl1_N_Plen,          !- Name
    0,                       !- Direction of Relative North {deg}
    4.572,                   !- X Origin {m}
    25.908,                  !- Y Origin {m}
    3.658,                   !- Z Origin {m}
    1,                       !- Type
    1,                       !- Multiplier
    0.914,                   !- Ceiling Height {m}
    108.262;                 !- Volume {m3}

  Zone,
    ZN9_Fl1_Core_Space,      !- Name
    0,                       !- Direction of Relative North {deg}
    4.572,                   !- X Origin {m}
    4.572,                   !- Y Origin {m}
    0.000,                   !- Z Origin {m}
    1,                       !- Type
    1,                       !- Multiplier
    3.658,                   !- Ceiling Height {m}
    1665.135;                !- Volume {m3}

  Zone,
    ZN10_Fl1_Core_Plen,      !- Name
    0,                       !- Direction of Relative North {deg}
    4.572,                   !- X Origin {m}
    4.572,                   !- Y Origin {m}
    3.658,                   !- Z Origin {m}
    1,                       !- Type
    1,                       !- Multiplier
    0.914,                   !- Ceiling Height {m}
    416.056;                 !- Volume {m3}

  Zone,
    ZN11_Fl2_S_Space,        !- Name
    0,                       !- Direction of Relative North {deg}
    0.000,                   !- X Origin {m}
    0.000,                   !- Y Origin {m}
    4.572,                   !- Z Origin {m}
    1,                       !- Type
    1,                       !- Multiplier
    3.658,                   !- Ceiling Height {m}
    433.287;                 !- Volume {m3}

  Zone,
    ZN12_Fl2_S_Plen,         !- Name
    0,                       !- Direction of Relative North {deg}
    0.000,                   !- X Origin {m}
    0.000,                   !- Y Origin {m}
    8.230,                   !- Z Origin {m}
    1,                       !- Type
    1,                       !- Multiplier
    0.914,                   !- Ceiling Height {m}
    108.262;                 !- Volume {m3}

  Zone,
    ZN13_Fl2_E_Space,        !- Name
    0,                       !- Direction of Relative North {deg}
    25.908,                  !- X Origin {m}
    4.572,                   !- Y Origin {m}
    4.572,                   !- Z Origin {m}
    1,                       !- Type
    1,                       !- Multiplier
    3.658,                   !- Ceiling Height {m}
    433.287;                 !- Volume {m3}

  Zone,
    ZN14_Fl2_E_Plen,         !- Name
    0,                       !- Direction of Relative North {deg}
    25.908,                  !- X Origin {m}
    4.572,                   !- Y Origin {m}
    8.230,                   !- Z Origin {m}
    1,                       !- Type
    1,                       !- Multiplier
    0.914,                   !- Ceiling Height {m}
    108.262;                 !- Volume {m3}

  Zone,
    ZN15_Fl2_W_Space,        !- Name
    0,                       !- Direction of Relative North {deg}
    0.000,                   !- X Origin {m}
    0.000,                   !- Y Origin {m}
    4.572,                   !- Z Origin {m}
    1,                       !- Type
    1,                       !- Multiplier
    3.658,                   !- Ceiling Height {m}
    433.287;                 !- Volume {m3}

  Zone,
    ZN16_Fl2_W_Plen,         !- Name
    0,                       !- Direction of Relative North {deg}
    0.000,                   !- X Origin {m}
    0.000,                   !- Y Origin {m}
    8.230,                   !- Z Origin {m}
    1,                       !- Type
    1,                       !- Multiplier
    0.914,                   !- Ceiling Height {m}
    108.262;                 !- Volume {m3}

  Zone,
    ZN17_Fl2_N_Space,        !- Name
    0,                       !- Direction of Relative North {deg}
    4.572,                   !- X Origin {m}
    25.908,                  !- Y Origin {m}
    4.572,                   !- Z Origin {m}
    1,                       !- Type
    1,                       !- Multiplier
    3.658,                   !- Ceiling Height {m}
    433.287;                 !- Volume {m3}

  Zone,
    ZN18_Fl2_N_Plen,         !- Name
    0,                       !- Direction of Relative North {deg}
    4.572,                   !- X Origin {m}
    25.908,                  !- Y Origin {m}
    8.230,                   !- Z Origin {m}
    1,                       !- Type
    1,                       !- Multiplier
    0.914,                   !- Ceiling Height {m}
    108.262;                 !- Volume {m3}

  Zone,
    ZN19_Fl2_Core_Space,     !- Name
    0,                       !- Direction of Relative North {deg}
    4.572,                   !- X Origin {m}
    4.572,                   !- Y Origin {m}
    4.572,                   !- Z Origin {m}
    1,                       !- Type
    1,                       !- Multiplier
    3.658,                   !- Ceiling Height {m}
    1665.135;                !- Volume {m3}

  Zone,
    ZN20_Fl2_Core_Plen,      !- Name
    0,                       !- Direction of Relative North {deg}
    4.572,                   !- X Origin {m}
    4.572,                   !- Y Origin {m}
    8.230,                   !- Z Origin {m}
    1,                       !- Type
    1,                       !- Multiplier
    0.914,                   !- Ceiling Height {m}
    416.056;                 !- Volume {m3}

  BuildingSurface:Detailed,
    ZN1_Fl1_S_Space:ExtWall:South,  !- Name
    wall,                    !- Surface Type
    Ext-Wall,                !- Construction Name
    ZN1_Fl1_S_Space,         !- Zone Name
    ,                        !- Space Name
    Outdoors,                !- Outside Boundary Condition
    ,                        !- Outside Boundary Condition Object
    SunExposed,              !- Sun Exposure
    WindExposed,             !- Wind Exposure
    0.500,                   !- View Factor to Ground
    4,                       !- Number of Vertices
    0.000,0.000,3.658,  !- X,Y,Z ==> Vertex 1 {m}
    0.000,0.000,0.000,  !- X,Y,Z ==> Vertex 2 {m}
    30.480,0.000,0.000,  !- X,Y,Z ==> Vertex 3 {m}
    30.480,0.000,3.658;  !- X,Y,Z ==> Vertex 4 {m}

  BuildingSurface:Detailed,
    ZN1_Fl1_S_Space:IntWall:East,  !- Name
    wall,                    !- Surface Type
    Int-Wall,                !- Construction Name
    ZN1_Fl1_S_Space,         !- Zone Name
    ,                        !- Space Name
    Surface,                 !- Outside Boundary Condition
    ZN3_Fl1_E_Space:IntWall:South,  !- Outside Boundary Condition Object
    NoSun,                   !- Sun Exposure
    NoWind,                  !- Wind Exposure
    0.000,                   !- View Factor to Ground
    4,                       !- Number of Vertices
    30.480,0.000,3.658,  !- X,Y,Z ==> Vertex 1 {m}
    30.480,0.000,0.000,  !- X,Y,Z ==> Vertex 2 {m}
    25.908,4.572,0.000,  !- X,Y,Z ==> Vertex 3 {m}
    25.908,4.572,3.658;  !- X,Y,Z ==> Vertex 4 {m}

  BuildingSurface:Detailed,
    ZN1_Fl1_S_Space:IntWall:West,  !- Name
    wall,                    !- Surface Type
    Int-Wall,                !- Construction Name
    ZN1_Fl1_S_Space,         !- Zone Name
    ,                        !- Space Name
    Surface,                 !- Outside Boundary Condition
    ZN5_Fl1_W_Space:IntWall:South,  !- Outside Boundary Condition Object
    NoSun,                   !- Sun Exposure
    NoWind,                  !- Wind Exposure
    0.000,                   !- View Factor to Ground
    4,                       !- Number of Vertices
    4.572,4.572,3.658,  !- X,Y,Z ==> Vertex 1 {m}
    4.572,4.572,0.000,  !- X,Y,Z ==> Vertex 2 {m}
    0.000,0.000,0.000,  !- X,Y,Z ==> Vertex 3 {m}
    0.000,0.000,3.658;  !- X,Y,Z ==> Vertex 4 {m}

  BuildingSurface:Detailed,
    ZN1_Fl1_S_Space:IntWall:North,  !- Name
    wall,                    !- Surface Type
    Int-Wall,                !- Construction Name
    ZN1_Fl1_S_Space,         !- Zone Name
    ,                        !- Space Name
    Surface,                 !- Outside Boundary Condition
    ZN9_Fl1_Core_Space:IntWall:South,  !- Outside Boundary Condition Object
    NoSun,                   !- Sun Exposure
    NoWind,                  !- Wind Exposure
    0.000,                   !- View Factor to Ground
    4,                       !- Number of Vertices
    25.908,4.572,3.658,  !- X,Y,Z ==> Vertex 1 {m}
    25.908,4.572,0.000,  !- X,Y,Z ==> Vertex 2 {m}
    4.572,4.572,0.000,  !- X,Y,Z ==> Vertex 3 {m}
    4.572,4.572,3.658;  !- X,Y,Z ==> Vertex 4 {m}

  BuildingSurface:Detailed,
    ZN1_Fl1_S_Space:floor,   !- Name
    floor,                   !- Surface Type
    Ext-Slab,                !- Construction Name
    ZN1_Fl1_S_Space,         !- Zone Name
    ,                        !- Space Name
    Ground,                  !- Outside Boundary Condition
    ,                        !- Outside Boundary Condition Object
    NoSun,                   !- Sun Exposure
    NoWind,                  !- Wind Exposure
    0.000,                   !- View Factor to Ground
    4,                       !- Number of Vertices
    0.000,0.000,0.000,  !- X,Y,Z ==> Vertex 1 {m}
    4.572,4.572,0.000,  !- X,Y,Z ==> Vertex 2 {m}