! IndoorIceRink.idf
!
! Basic file description:  Demonstrates an ice rink implementation
!
! Simulation Location/Run: DENVER_STAPLETON_CO_USA_WMO_724690, 2 design days, 1 run period,
!                          Run Control executes two design days (see RUN PERIOD object)
!
! Location:                Denver, CO
!
! Design Days:             DENVER_STAPLETON_CO_USA Annual Heating 99%, MaxDB=-16°C
!                          DENVER_STAPLETON_CO_USA Annual Cooling (DB=>MWB) 1%, MaxDB=32.6°C MWB=15.5°C
!
! Run Period (Weather File): Full Annual Simulation, DENVER_STAPLETON_CO_USA_WMO_724690
!
! Run Control:             No zone or system sizing, design day run control (no weather file simulation)
!
! Building:                Fictional 1 zone building with resistive walls based on 1ZoneUncontrolled example.
!                          No windows.  No internal gains.  No internal mass.  The building is oriented due north.
!
! Floor Area:              232.25 m2
! Number of Stories:       1

Version, 9.6;

Timestep, 6;

Building,
    Bldg,                    !- Name
    0.0,                     !- North Axis {deg}
    Suburbs,                 !- Terrain
    0.05,                    !- Loads Convergence Tolerance Value {W}
    0.05,                    !- Temperature Convergence Tolerance Value {deltaC}
    MinimalShadowing,        !- Solar Distribution
    30,                      !- Maximum Number of Warmup Days
    6;                       !- Minimum Number of Warmup Days

HeatBalanceAlgorithm,ConductionTransferFunction;
SurfaceConvectionAlgorithm:Inside,TARP;
SurfaceConvectionAlgorithm:Outside,DOE-2;

SimulationControl,
    Yes,                     !- Do Zone Sizing Calculation
    Yes,                     !- Do System Sizing Calculation
    No,                      !- Do Plant Sizing Calculation
    Yes,                     !- Run Simulation for Sizing Periods
    Yes,                     !- Run Simulation for Weather File Run Periods
    ,                        !- Do HVAC Sizing Simulation for Sizing Periods
    ;                        !- Maximum Number of HVAC Sizing Simulation Passes

RunPeriod,
    Run Period 1,            !- Name
    1,                       !- Begin Month
    1,                       !- Begin Day of Month
    ,                        !- Begin Year
    12,                      !- End Month
    31,                      !- End Day of Month
    ,                        !- End Year
    Tuesday,                 !- Day of Week for Start Day
    Yes,                     !- Use Weather File Holidays and Special Days
    Yes,                     !- Use Weather File Daylight Saving Period
    No,                      !- Apply Weekend Holiday Rule
    Yes,                     !- Use Weather File Rain Indicators
    Yes;                     !- Use Weather File Snow Indicators

Material:NoMass,
    R11,                     !- Name
    Rough,                   !- Roughness
    1.94,                    !- Thermal Resistance {m2-K/W}
    0.9000000,               !- Thermal Absorptance
    0.7500000,               !- Solar Absorptance
    0.7500000;               !- Visible Absorptance

Material,
    C5 - 4 IN HW CONCRETE,   !- Name
    MediumRough,             !- Roughness
    0.1014984,               !- Thickness {m}
    1.729577,                !- Conductivity {W/m-K}
    2242.585,                !- Density {kg/m3}
    836.8000,                !- Specific Heat {J/kg-K}
    0.9000000,               !- Thermal Absorptance
    0.6500000,               !- Solar Absorptance
    0.6500000;               !- Visible Absorptance

Construction,
    Insulation,              !- Name
    Masonry,                 !- Outside Layer
    R11,                     !- Layer 2
    1/2" Gyp;                !- Layer 3

Construction,
    FLOOR,                   !- Name
    C5 - 4 IN HW CONCRETE;   !- Outside Layer

Site:GroundTemperature:BuildingSurface,18.89,18.92,19.02,19.12,19.21,19.23,19.07,19.32,19.09,19.21,19.13,18.96;

Zone,
    Main Zone,               !- Name
    0,                       !- Direction of Relative North {deg}
    0, 0, 0,                            !- X,Y,Z  {m}
    1,                       !- Type
    1,                       !- Multiplier
    autocalculate,           !- Ceiling Height {m}
    autocalculate;           !- Volume {m3}

ScheduleTypeLimits,
    Fraction,                !- Name
    0.0,                     !- Lower Limit Value
    1.0,                     !- Upper Limit Value
    CONTINUOUS;              !- Numeric Type

GlobalGeometryRules,
    UpperLeftCorner,         !- Starting Vertex Position
    CounterClockWise,        !- Vertex Entry Direction
    World;                   !- Coordinate System

ZoneInfiltration:DesignFlowRate,
    Zone 2 Infiltration,     !- Name
    Zone 2,                  !- Zone or ZoneList Name
    System Availability Schedule,  !- Schedule Name
    Flow/Zone,               !- Design Flow Rate Calculation Method
    0.02,                    !- Design Flow Rate {m3/s}
    ,                        !- Flow per Zone Floor Area {m3/s-m2}
    ,                        !- Flow per Exterior Surface Area {m3/s-m2}
    ,                        !- Air Changes per Hour {1/hr}
    1.0000,                  !- Constant Term Coefficient
    0.0000,                  !- Temperature Term Coefficient
    0.0000,                  !- Velocity Term Coefficient
    0.0000;                  !- Velocity Squared Term Coefficient

Schedule:Compact,
    System Availability Schedule,  !- Name
    Any Number,              !- Schedule Type Limits Name
    THROUGH: 12/31,          !- Field 1
    FOR: AllDays,            !- Field 2
    UNTIL: 24:00, 1;         !- Field 4

OutputControl:Table:Style,
    HTML,                    !- Column Separator
    None;                    !- Unit Conversion

Output:Table:SummaryReports,
    AllSummary;              !- Report 1 Name

Construction,
    FLOOR-ICE RINK,          !- Name
    CONCRETE - DRIED SAND AND GRAVEL 4 IN,  !- Outside Layer
    INS - EXPANDED EXT POLYSTYRENE R12 2 IN,  !- Layer 2
    100mm -Chilled Concrete, !- Layer 3
    10mm -Chilled Concrete,  !- Layer 4
    Water;                   !- Layer 5

Schedule:Compact,
    Main Loop Temp Sch,      !- Name
    Any Number,              !- Schedule Type Limits Name
    THROUGH: 12/31,          !- Field 1
    FOR: AllDays,            !- Field 2
    UNTIL: 24:00, -9;       !- Field 4

Chiller:ConstantCOP,
    Main Chiller,            !- Name
    Autosize,                  !- Reference Capacity {W}
    3.5,                     !- Reference COP {W/W}
    Autosize,                     !- Reference Chilled Water Flow Rate {m3/s}
    Autosize,                     !- Reference Condenser Fluid Flow Rate {m3/s}
    CondenserIn,             !- Chilled Water Inlet Node Name
    CondenserOut,            !- Chilled Water Outlet Node Name
    ,                        !- Condenser Inlet Node Name
    ,                        !- Condenser Outlet Node Name
    AirCooled,               !- Condenser Type
    ConstantFlow;            !- Chiller Flow Mode

Curve:Quadratic,
    Main Chiller RecipEIRFPLR,  !- Name
    0.088065,                !- Coefficient1 Constant
    1.137742,                !- Coefficient2 x
    -0.225806,               !- Coefficient3 x**2
    0,                       !- Minimum Value of x
    1;                       !- Maximum Value of x

Curve:Biquadratic,
    Main Chiller RecipCapFT, !- Name
    0.507883,                !- Coefficient1 Constant
    0.145228,                !- Coefficient2 x
    -0.00625644,             !- Coefficient3 x**2
    -0.0011178,              !- Coefficient4 y
    -0.0001296,              !- Coefficient5 y**2
    -0.00028188,             !- Coefficient6 x*y
    5,                       !- Minimum Value of x
    10,                      !- Maximum Value of x
    24,                      !- Minimum Value of y
    35,                      !- Maximum Value of y
    ,                        !- Minimum Curve Output
    ,                        !- Maximum Curve Output
    Temperature,             !- Input Unit Type for X
    Temperature,             !- Input Unit Type for Y
    Dimensionless;           !- Output Unit Type

Curve:Biquadratic,
    Main Chiller RecipEIRFT, !- Name
    1.03076,                 !- Coefficient1 Constant
    -0.103536,               !- Coefficient2 x
    0.00710208,              !- Coefficient3 x**2
    0.0093186,               !- Coefficient4 y
    0.00031752,              !- Coefficient5 y**2
    -0.00104328,             !- Coefficient6 x*y
    5,                       !- Minimum Value of x
    10,                      !- Maximum Value of x
    24,                      !- Minimum Value of y
    35,                      !- Maximum Value of y
    ,                        !- Minimum Curve Output
    ,                        !- Maximum Curve Output
    Temperature,             !- Input Unit Type for X
    Temperature,             !- Input Unit Type for Y
    Dimensionless;           !- Output Unit Type

Sizing:Plant,
    Main Loop,               !- Plant or Condenser Loop Name
    Cooling,                 !- Loop Type
    -7,                      !- Design Loop Exit Temperature {C}
    3;                       !- Loop Design Temperature Difference {deltaC}

BuildingSurface:Detailed,
    Zn001:IceRink,           !- Name
    Floor,                   !- Surface Type
    FLOOR-ICE RINK,          !- Construction Name
    Main Zone,               !- Zone Name
    ,                        !- Space Name
    Ground,                  !- Outside Boundary Condition
    ,                        !- Outside Boundary Condition Object
    NoSun,                   !- Sun Exposure
    NoWind,                  !- Wind Exposure
    1.000000,                !- View Factor to Ground
    4,                       !- Number of Vertices
    35, 0, 0.0,                       !- X,Y,Z  1 {m}
    5, 0, 0.0,                        !- X,Y,Z  2 {m}
    5, 75, 0.0,                       !- X,Y,Z  3 {m}
    35, 75, 0.0;                      !- X,Y,Z  4 {m}

SizingPeriod:DesignDay,
    NEWARK Ann Htg 99.6% Condns DB,  !- Name
    1,                       !- Month
    21,                      !- Day of Month
    WinterDesignDay,         !- Day Type
    -11.6,                   !- Maximum Dry-Bulb Temperature {C}
    0.0,                     !- Daily Dry-Bulb Temperature Range {deltaC}
    DefaultMultipliers,      !- Dry-Bulb Temperature Range Modifier Type
    ,                        !- Dry-Bulb Temperature Range Modifier Day Schedule Name
    Wetbulb,                 !- Humidity Condition Type
    -11.6,                   !- Wetbulb or DewPoint at Maximum Dry-Bulb {C}
    ,                        !- Humidity Condition Day Schedule Name
    ,                        !- Humidity Ratio at Maximum Dry-Bulb {kgWater/kgDryAir}
    ,                        !- Enthalpy at Maximum Dry-Bulb {J/kg}
    ,                        !- Daily Wet-Bulb Temperature Range {deltaC}
    101217.,                 !- Barometric Pressure {Pa}
    6.2,                     !- Wind Speed {m/s}
    320,                     !- Wind Direction {deg}
    No,                      !- Rain Indicator
    No,                      !- Snow Indicator
    No,                      !- Daylight Saving Time Indicator
    ASHRAEClearSky,          !- Solar Model Indicator
    ,                        !- Beam Solar Day Schedule Name
    ,                        !- Diffuse Solar Day Schedule Name
    ,                        !- ASHRAE Clear Sky Optical Depth for Beam Irradiance (taub) {dimensionless}
    ,                        !- ASHRAE Clear Sky Optical Depth for Diffuse Irradiance (taud) {dimensionless}
    0.00;                    !- Sky Clearness

SizingPeriod:DesignDay,
    NEWARK Ann Clg .4% Condns DB=>MWB,  !- Name
    7,                       !- Month
    21,                      !- Day of Month
    SummerDesignDay,         !- Day Type
    34.5,                    !- Maximum Dry-Bulb Temperature {C}
    8.9,                     !- Daily Dry-Bulb Temperature Range {deltaC}
    DefaultMultipliers,      !- Dry-Bulb Temperature Range Modifier Type
    ,                        !- Dry-Bulb Temperature Range Modifier Day Schedule Name
    Wetbulb,                 !- Humidity Condition Type
    23.8,                    !- Wetbulb or DewPoint at Maximum Dry-Bulb {C}
    ,                        !- Humidity Condition Day Schedule Name
    ,                        !- Humidity Ratio at Maximum Dry-Bulb {kgWater/kgDryAir}
    ,                        !- Enthalpy at Maximum Dry-Bulb {J/kg}
    ,                        !- Daily Wet-Bulb Temperature Range {deltaC}
    101217.,                 !- Barometric Pressure {Pa}
    5.8,                     !- Wind Speed {m/s}
    250,                     !- Wind Direction {deg}
    No,                      !- Rain Indicator
    No,                      !- Snow Indicator
    No,                      !- Daylight Saving Time Indicator
    ASHRAETau,               !- Solar Model Indicator
    ,                        !- Beam Solar Day Schedule Name
    ,                        !- Diffuse Solar Day Schedule Name
    0.528,                   !- ASHRAE Clear Sky Optical Depth for Beam Irradiance (taub) {dimensionless}
    1.831;                   !- ASHRAE Clear Sky Optical Depth for Diffuse Irradiance (taud) {dimensionless}

Schedule:Compact,
    LIGHTS-1,                !- Name
    Fraction,                !- Schedule Type Limits Name
    Through: 04/30,          !- Field 1
    For: AllDays,            !- Field 2
    Until: 24:00, .6,        !- Field 4
    Through: 09/30,          !- Field 5
    For: AllDays,            !- Field 6
    Until: 24:00, .1,        !- Field 8
    Through: 12/31,          !- Field 9
    For: AllDays,            !- Field 10
    Until: 24:00, .6;        !- Field 12

Schedule:Compact,
    EQUIP-1,                 !- Name
    Fraction,                !- Schedule Type Limits Name
    Through: 04/30,          !- Field 1
    For: AllDays,            !- Field 2
    Until: 24:00, .5,        !- Field 4
    Through: 09/30,          !- Field 5
    For: AllDays,            !- Field 6
    Until: 24:00, .1,        !- Field 8
    Through: 12/31,          !- Field 9
    For: AllDays,            !- Field 10
    Until: 24:00, .5;        !- Field 12

Schedule:Day:Hourly,
    Resurfacer,              !- Name
    Any Number,              !- Schedule Type Limits Name
    0,                       !- Hour 1
    0,                       !- Hour 2
    0,                       !- Hour 3
    0,                       !- Hour 4
    0,                       !- Hour 5
    1,                       !- Hour 6
    0,                       !- Hour 7
    0,                       !- Hour 8
    0,                       !- Hour 9
    0,                       !- Hour 10
    0,                       !- Hour 11
    1,                       !- Hour 12
    0,                       !- Hour 13
    0,                       !- Hour 14
    0,                       !- Hour 15
    0,                       !- Hour 16
    0,                       !- Hour 17
    1,                       !- Hour 18
    0,                       !- Hour 19
    0,                       !- Hour 20
    0,                       !- Hour 21
    0,                       !- Hour 22
    0,                       !- Hour 23
    0;                       !- Hour 24

Schedule:Week:Daily,
    ResurfacerWk,            !- Name
    Resurfacer,              !- Sunday Schedule:Day Name
    Resurfacer,              !- Monday Schedule:Day Name
    Resurfacer,              !- Tuesday Schedule:Day Name
    Resurfacer,              !- Wednesday Schedule:Day Name
    Resurfacer,              !- Thursday Schedule:Day Name
    Resurfacer,              !- Friday Schedule:Day Name
    Resurfacer,              !- Saturday Schedule:Day Name
    Resurfacer,              !- Holiday Schedule:Day Name
    Resurfacer,              !- SummerDesignDay Schedule:Day Name
    Resurfacer,              !- WinterDesignDay Schedule:Day Name
    Resurfacer,              !- CustomDay1 Schedule:Day Name
    Resurfacer;              !- CustomDay2 Schedule:Day Name

Schedule:Year,
    ResurfacerYr,            !- Name
    Any Number,              !- Schedule Type Limits Name
    ResurfacerWk,            !- Schedule:Week Name 1
    1,                       !- Start Month 1
    1,                       !- Start Day 1
    12,                      !- End Month 1
    31;                      !- End Day 1

DesignSpecification:OutdoorAir,
    SZ DSOA SPACE2-1,        !- Name
    sum,                     !- Outdoor Air Method
    0.00236,                 !- Outdoor Air Flow per Person {m3/s-person}
    0.000305,                !- Outdoor Air Flow per Zone Floor Area {m3/s-m2}
    0.0;                     !- Outdoor Air Flow per Zone {m3/s}

ZoneHVAC:IdealLoadsAirSystem,
    ZONE 2 Ideal Loads,      !- Name
    ,                        !- Availability Schedule Name
    SPACE2-1 In Node,        !- Zone Supply Air Node Name
    SPACE2-1 Ex Node,        !- Zone Exhaust Air Node Name
    ,                        !- System Inlet Air Node Name
    35,                      !- Maximum Heating Supply Air Temperature {C}
    13,                      !- Minimum Cooling Supply Air Temperature {C}
    0.015,                   !- Maximum Heating Supply Air Humidity Ratio {kgWater/kgDryAir}
    0.009,                   !- Minimum Cooling Supply Air Humidity Ratio {kgWater/kgDryAir}
    NoLimit,                 !- Heating Limit
    autosize,                !- Maximum Heating Air Flow Rate {m3/s}
    ,                        !- Maximum Sensible Heating Capacity {W}
    NoLimit,                 !- Cooling Limit
    autosize,                !- Maximum Cooling Air Flow Rate {m3/s}
    ,                        !- Maximum Total Cooling Capacity {W}
    ,                        !- Heating Availability Schedule Name
    ,                        !- Cooling Availability Schedule Name
    ConstantSupplyHumidityRatio,  !- Dehumidification Control Type
    ,                        !- Cooling Sensible Heat Ratio {dimensionless}
    ConstantSupplyHumidityRatio,  !- Humidification Control Type
    ,                        !- Design Specification Outdoor Air Object Name
    ,                        !- Outdoor Air Inlet Node Name
    ,                        !- Demand Controlled Ventilation Type
    ,                        !- Outdoor Air Economizer Type
    ,                        !- Heat Recovery Type
    ,                        !- Sensible Heat Recovery Effectiveness {dimensionless}
    ;                        !- Latent Heat Recovery Effectiveness {dimensionless}

People,
    SPACE2-1 People 1,       !- Name
    Zone 2,                  !- Zone or ZoneList Name
    OCCUPY-1,                !- Number of People Schedule Name
    people,                  !- Number of People Calculation Method
    210,                     !- Number of People
    ,                        !- People per Zone Floor Area {person/m2}
    ,                        !- Zone Floor Area per Person {m2/person}
    0.3,                     !- Fraction Radiant
    ,                        !- Sensible Heat Fraction
    ActSchd;                 !- Activity Level Schedule Name

ZoneHVAC:EquipmentList,
    Zone 2 Equipment,        !- Name
    SequentialLoad,          !- Load Distribution Scheme
    ZoneHVAC:IdealLoadsAirSystem,  !- Zone Equipment 1 Object Type
    ZONE 2 Ideal Loads,      !- Zone Equipment 1 Name
    1,                       !- Zone Equipment 1 Cooling Sequence
    1,                       !- Zone Equipment 1 Heating or No-Load Sequence
    ,                        !- Zone Equipment 1 Sequential Cooling Fraction Schedule Name
    ;                        !- Zone Equipment 1 Sequential Heating Fraction Schedule Name

ZoneHVAC:EquipmentConnections,
    Main Zone,               !- Zone Name
    Main Zone Equipment,     !- Zone Conditioning Equipment List Name
    SPACE1-1 In Node,        !- Zone Air Inlet Node or NodeList Name
    SPACE1-1 Ex Node,        !- Zone Air Exhaust Node or NodeList Name
    SPACE1-1 Node,           !- Zone Air Node Name
    Ret Node 1;              !- Zone Return Air Node or NodeList Name

Sizing:Zone,
    Zone 2,                  !- Zone or ZoneList Name
    SupplyAirTemperature,    !- Zone Cooling Design Supply Air Temperature Input Method
    14.,                     !- Zone Cooling Design Supply Air Temperature {C}
    ,                        !- Zone Cooling Design Supply Air Temperature Difference {deltaC}
    SupplyAirTemperature,    !- Zone Heating Design Supply Air Temperature Input Method
    50.,                     !- Zone Heating Design Supply Air Temperature {C}
    ,                        !- Zone Heating Design Supply Air Temperature Difference {deltaC}
    0.009,                   !- Zone Cooling Design Supply Air Humidity Ratio {kgWater/kgDryAir}
    0.004,                   !- Zone Heating Design Supply Air Humidity Ratio {kgWater/kgDryAir}
    SZ DSOA SPACE1-1,        !- Design Specification Outdoor Air Object Name
    0.0,                     !- Zone Heating Sizing Factor
    0.0,                     !- Zone Cooling Sizing Factor
    DesignDayWithLimit,      !- Cooling Design Air Flow Method
    ,                        !- Cooling Design Air Flow Rate {m3/s}
    ,                        !- Cooling Minimum Air Flow per Zone Floor Area {m3/s-m2}
    ,                        !- Cooling Minimum Air Flow {m3/s}
    ,                        !- Cooling Minimum Air Flow Fraction
    DesignDay,               !- Heating Design Air Flow Method
    ,                        !- Heating Design Air Flow Rate {m3/s}
    ,                        !- Heating Maximum Air Flow per Zone Floor Area {m3/s-m2}
    ,                        !- Heating Maximum Air Flow {m3/s}
    ,                        !- Heating Maximum Air Flow Fraction
    ,                        !- Design Specification Zone Air Distribution Object Name
    ,                        !- Account for Dedicated Outdoor Air System
    ,                        !- Dedicated Outdoor Air System Control Strategy
    ,                        !- Dedicated Outdoor Air Low Setpoint Temperature for Design {C}
    ;                        !- Dedicated Outdoor Air High Setpoint Temperature for Design {C}

ZoneInfiltration:DesignFlowRate,
    Main Zone Infiltration,  !- Name
    Main Zone,               !- Zone or ZoneList Name
    System Availability Schedule,  !- Schedule Name
    Flow/Zone,               !- Design Flow Rate Calculation Method
    0.02,                    !- Design Flow Rate {m3/s}
    ,                        !- Flow per Zone Floor Area {m3/s-m2}
    ,                        !- Flow per Exterior Surface Area {m3/s-m2}
    ,                        !- Air Changes per Hour {1/hr}
    1.0000,                  !- Constant Term Coefficient
    0.0000,                  !- Temperature Term Coefficient
    0.0000,                  !- Velocity Term Coefficient
    0.0000;                  !- Velocity Squared Term Coefficient

ZoneControl:Thermostat,
    SPACE2-1 Control,        !- Name
    Zone 2,                  !- Zone or ZoneList Name
    Zone Control Type Sched, !- Control Type Schedule Name
    ThermostatSetpoint:SingleCooling,  !- Control 1 Object Type
    CoolingSetPoint,         !- Control 1 Name
    ThermostatSetpoint:SingleHeating,  !- Control 2 Object Type
    HeatingSetpoint,         !- Control 2 Name
    ThermostatSetpoint:DualSetpoint,  !- Control 3 Object Type
    DualSetPoint,            !- Control 3 Name
    ThermostatSetpoint:SingleHeatingOrCooling,  !- Control 4 Object Type
    Htg Clg;                 !- Control 4 Name

ConstructionProperty:InternalHeatSource,
    Slab Floor with Radiant, !- Name
    FLOOR-ICE RINK,          !- Construction Name
    3,                       !- Thermal Source Present After Layer Number
    1,                       !- Temperature Calculation Requested After Layer Number
    1,                       !- Dimensions for the CTF Calculation
    0.1524,                  !- Tube Spacing {m}
    0;                       !- Two-Dimensional Temperature Calculation Position {dimensionless}

BuildingSurface:Detailed,
    Zn001:Flr001,            !- Name
    Floor,                   !- Surface Type
    FLOOR,                   !- Construction Name
    Main Zone,               !- Zone Name
    ,
    Ground,                  !- Outside Boundary Condition
    ,                        !- Outside Boundary Condition Object
    NoSun,                   !- Sun Exposure
    ,                        !- Wind Exposure
    autocalculate,           !- View Factor to Ground
    4,                       !- Number of Vertices
    5, 0.000000, 0.0,                  !- X,Y,Z  1 {m}
    0.000000, 0.000000, 0.0,            !- X,Y,Z  2 {m}
    0.000000, 75, 0.0,                  !- X,Y,Z  3 {m}
    5, 75, 0.0;                        !- X,Y,Z  4 {m}

BuildingSurface:Detailed,
    Zn001:Flr002,            !- Name
    Floor,                   !- Surface Type
    FLOOR,                   !- Construction Name
    Main Zone,               !- Zone Name
    ,
    Ground,                  !- Outside Boundary Condition
    ,                        !- Outside Boundary Condition Object
    NoSun,                   !- Sun Exposure
    ,                        !- Wind Exposure
    autocalculate,           !- View Factor to Ground
    4,                       !- Number of Vertices
    40, 0.000000, 0.0,                  !- X,Y,Z  1 {m}
    35, 0.000000, 0.0,            !- X,Y,Z  2 {m}
    35, 75, 0.0,                  !- X,Y,Z  3 {m}
    40, 75, 0.0;                        !- X,Y,Z  4 {m}

Site:Location,
    NEWARK_NJ_USA Design_Conditions,  !- Name
    40.70,                   !- Latitude {deg}
    -74.17,                  !- Longitude {deg}
    -5.00,                   !- Time Zone {hr}
    9.00;                    !- Elevation {m}

Schedule:Compact,
    IceRink_ON,              !- Name
    On/Off,                  !- Schedule Type Limits Name
    Through: 04/30,          !- Field 1
    For: AllDays,            !- Field 2
    Until: 24:00, 1,         !- Field 4
    Through: 09/30,          !- Field 5
    For: AllDays,            !- Field 6
    Until: 24:00, 0,         !- Field 8
    Through: 12/31,          !- Field 9
    For: AllDays,            !- Field 10
    Until: 24:00, 1;         !- Field 12

BuildingSurface:Detailed,
    Zn002:Flr001,            !- Name
    Floor,                   !- Surface Type
    FLOOR,                   !- Construction Name
    Zone 2,                  !- Zone Name
    ,
    Ground,                  !- Outside Boundary Condition
    ,                        !- Outside Boundary Condition Object
    NoSun,                   !- Sun Exposure
    NoWind,                  !- Wind Exposure
    1.000000,                !- View Factor to Ground
    4,                       !- Number of Vertices
    40, 75, 0.0,                        !- X,Y,Z  1 {m}
    0.000000, 75, 0.0,                  !- X,Y,Z  2 {m}
    0.000000, 84, 0.0,                  !- X,Y,Z  3 {m}
    40, 84, 0.0;                        !- X,Y,Z  4 {m}

BuildingSurface:Detailed,
    Zn002:Roof001,           !- Name
    Roof,                    !- Surface Type
    nonres_roof,             !- Construction Name
    Zone 2,                  !- Zone Name
    ,
    Outdoors,                !- Outside Boundary Condition
    ,                        !- Outside Boundary Condition Object
    SunExposed,              !- Sun Exposure
    WindExposed,             !- Wind Exposure
    1.000000,                !- View Factor to Ground
    4,                       !- Number of Vertices
    0, 75, 4.572,            !- X,Y,Z  1 {m}
    40, 75, 4.572,           !- X,Y,Z  2 {m}
    40, 84, 4.572,           !- X,Y,Z  3 {m}
    0.000000, 84, 4.572;     !- X,Y,Z  4 {m}

BuildingSurface:Detailed,
    Zn002:Wall001,           !- Name
    Wall,                    !- Surface Type
    Insulation,              !- Construction Name
    Zone 2,                  !- Zone Name
    ,
    Outdoors,                !- Outside Boundary Condition
    ,                        !- Outside Boundary Condition Object
    SunExposed,              !- Sun Exposure
    WindExposed,             !- Wind Exposure
    0.5000000,               !- View Factor to Ground
    4,                       !- Number of Vertices
    40, 75, 4.572000,                   !- X,Y,Z  1 {m}
    40, 75, 0,                          !- X,Y,Z  2 {m}
    40, 84, 0,                          !- X,Y,Z  3 {m}
    40, 84, 4.572000;                   !- X,Y,Z  4 {m}

BuildingSurface:Detailed,
    Zn002:Wall002,           !- Name
    Wall,                    !- Surface Type
    Insulation,              !- Construction Name
    Zone 2,                  !- Zone Name
    ,
    Outdoors,                !- Outside Boundary Condition
    ,                        !- Outside Boundary Condition Object
    SunExposed,              !- Sun Exposure
    WindExposed,             !- Wind Exposure
    0.5000000,               !- View Factor to Ground
    4,                       !- Number of Vertices
    0, 75, 4.572000,                    !- X,Y,Z  1 {m}
    0, 75, 0,                           !- X,Y,Z  2 {m}
    0, 84, 0,                           !- X,Y,Z  3 {m}