!-Generator IDFEditor 1.53
!-Option SortedOrder

!-NOTE: All comments with '!-' are ignored by the IDFEditor and are generated automatically.
!-      Use '!' comments if they need to be retained when using the IDFEditor.


!-   ===========  ALL OBJECTS IN CLASS: VERSION ===========

! IndoorLivingWall.idf
! Basic file description:  1 story building divided into 4 exterior and one interior conditioned zones and return plenum.
!                          An indoor living wall object is added to the south perimeter zone of the building.
!
! Highlights:              Example of an indoor living wall object for thermal zones.
!
! Simulation Location/Run: Phoenix Sky Harbor Intl Ap_AZ_USA, 1 run periods,
!                          Run Control executes the run periods using the weather file
!
! Location:                Phoenix, Arizona 
!
! Design Days:             PHOENIX_AZ_USA Annual Heating 99.6% Design Conditions DB, MaxDB= 3.7°C
!                          PHOENIX_AZ_USA Annual Cooling 1% Design Conditions, MaxDB=  42.3°C MWB=  21.0°C
!
! Run Period (Weather File): 7/1 through 7/31, USA_AZ_Phoenix-Sky.Harbor.Intl.AP.722780_TMY3
!
! Run Control:             Zone and System sizing with weather file run control (no design days run)
!
! Building: Single floor rectangular building 100 ft x 50 ft. 5 zones - 4 exterior, 1 interior, zone height 8 feet.
!           Exterior zone depth is 12 feet. There is a 2 foot high return plenum: the overall building height is
!           10 feet. There are windows on all 4 facades; the south and north facades have glass doors.
!           The walls are woodshingle over plywood, R11 insulation,
!           and gypboard. The roof is a gravel built up roof with R-3 mineral board insulation and plywood sheathing.
!           The windows are of various single and double pane construction with 3mm and 6mm glass and either 6mm or
!           13mm argon or air gap.  The window to wall ratio is approximately 0.29.
!           The south wall and door have overhangs.
!
!           The building is oriented 0 degrees from north.
!
! Floor Area:        463.6 m2 (5000 ft2)
! Number of Stories: 1
!
! Zone Description Details:
!
!      (0,15.2,0)                      (30.5,15.2,0)
!           _____   ________                ____
!         |\     ***        ****************   /|
!         | \                                 / |
!         |  \                 (26.8,11.6,0) /  |
!         *   \_____________________________/   *
!         *    |(3.7,11.6,0)               |    *
!         *    |                           |    *
!         *    |                           |    *
!         *    |               (26.8,3.7,0)|    *
!         *    |___________________________|    *
!         *   / (3.7,3.7,0)                 \   *
!         |  /                               \  |
!         | /                                 \ |
!         |/___******************___***________\|
!          |       Overhang        |   |
!          |_______________________|   |   window/door = *
!                                  |___|
!
!      (0,0,0)                            (30.5,0,0)
!
! Internal gains description:     lighting is 1.5 watts/ft2, office equip is 1.0 watts/ft2. There is 1 occupant
!                                 per 100 ft2 of floor area. The infiltration is 0.25 air changes per hour.
!
! Interzone Surfaces:             6 interzone surfaces (see diagram)
! Internal Mass:                  None
! People:                         50
! Lights:                         7500 W
! Windows:                        4 ea.: 1) Double pane clear, 3mm glass, 13mm air gap
!                                        2) Double pane clear, 3mm glass, 13mm argon gap
!                                        3) Double pane clear, 6mm glass, 6mm air gap
!                                        4) Double pane lowE,  6mm lowE glass outside, 6mm air gap, 6mm clear glass
!
! Doors:                          2 ea.:    Single pane grey,  3mm glass
!
! Detached Shading:               None
! Daylight:                       None
! Natural Ventilation:            None
! Compact Schedules:              Yes
!
! HVAC:                           Standard VAV system with outside air, hot water reheat coils,
!                                 central chilled water cooling coil. Central Plant is single hot water
!                                 boiler, electric compression chiller with air cooled condenser.
!                                 All equipment is autosized. HW and ChW coils are used in the outside air
!                                 stream to precondition the outside air.
!
! Zonal Equipment:                AirTerminal:SingleDuct:VAV:Reheat
! Central Air Handling Equipment: Yes
! System Equipment Autosize:      Yes
! Purchased Cooling:              None
! Purchased Heating:              None
! Coils:                          Coil:Cooling:Water, Coil:Heating:Water
! Pumps:                          Pump:VariableSpeed
! Boilers:                        Boiler:HotWater
! Chillers:                       Chiller:Electric
!
! Results:
! Standard Reports:               None
! Timestep or Hourly Variables:   Hourly
! Time bins Report:               None
! HTML Report:                    None
! Environmental Emissions:        None
! Utility Tariffs:                None
Version,
    23.2;                    !- Version Identifier


!-   ===========  ALL OBJECTS IN CLASS: SIMULATIONCONTROL ===========

SimulationControl,
    Yes,                     !- Do Zone Sizing Calculation
    Yes,                     !- Do System Sizing Calculation
    Yes,                     !- Do Plant Sizing Calculation
    No,                      !- Run Simulation for Sizing Periods
    Yes,                     !- Run Simulation for Weather File Run Periods
    No,                      !- Do HVAC Sizing Simulation for Sizing Periods
    1;                       !- Maximum Number of HVAC Sizing Simulation Passes


!-   ===========  ALL OBJECTS IN CLASS: BUILDING ===========

Building,
    Building,                !- Name
    0,                       !- North Axis {deg}
    City,                    !- Terrain
    0.04,                    !- Loads Convergence Tolerance Value {W}
    0.4,                     !- Temperature Convergence Tolerance Value {deltaC}
    FullExterior,            !- Solar Distribution
    25,                      !- Maximum Number of Warmup Days
    6;                       !- Minimum Number of Warmup Days


!-   ===========  ALL OBJECTS IN CLASS: SURFACECONVECTIONALGORITHM:INSIDE ===========

SurfaceConvectionAlgorithm:Inside,
    Simple;                  !- Algorithm


!-   ===========  ALL OBJECTS IN CLASS: SURFACECONVECTIONALGORITHM:OUTSIDE ===========

SurfaceConvectionAlgorithm:Outside,
    SimpleCombined;          !- Algorithm


!-   ===========  ALL OBJECTS IN CLASS: HEATBALANCEALGORITHM ===========

HeatBalanceAlgorithm,
    ConductionTransferFunction;  !- Algorithm


!-   ===========  ALL OBJECTS IN CLASS: TIMESTEP ===========

Timestep,
    4;                       !- Number of Timesteps per Hour


!-   ===========  ALL OBJECTS IN CLASS: SITE:LOCATION ===========

Site:Location,
    Phoenix Sky Harbor Intl Ap_AZ_USA Design_Conditions,  !- Name
    33.45,                   !- Latitude {deg}
    -111.98,                 !- Longitude {deg}
    -7.00,                   !- Time Zone {hr}
    337.00;                  !- Elevation {m}


!-   ===========  ALL OBJECTS IN CLASS: SIZINGPERIOD:DESIGNDAY ===========

SizingPeriod:DesignDay,
    Phoenix Sky Harbor Intl Ap Ann Htg 99.6% Condns DB,  !- Name
    12,                      !- Month
    21,                      !- Day of Month
    WinterDesignDay,         !- Day Type
    3.7,                     !- Maximum Dry-Bulb Temperature {C}
    0.0,                     !- Daily Dry-Bulb Temperature Range {deltaC}
    DefaultMultipliers,      !- Dry-Bulb Temperature Range Modifier Type
    ,                        !- Dry-Bulb Temperature Range Modifier Day Schedule Name
    Wetbulb,                 !- Humidity Condition Type
    3.7,                     !- Wetbulb or DewPoint at Maximum Dry-Bulb {C}
    ,                        !- Humidity Condition Day Schedule Name
    ,                        !- Humidity Ratio at Maximum Dry-Bulb {kgWater/kgDryAir}
    ,                        !- Enthalpy at Maximum Dry-Bulb {J/kg}
    ,                        !- Daily Wet-Bulb Temperature Range {deltaC}
    97342.,                  !- Barometric Pressure {Pa}
    1.7,                     !- Wind Speed {m/s}
    100,                     !- Wind Direction {deg}
    No,                      !- Rain Indicator
    No,                      !- Snow Indicator
    No,                      !- Daylight Saving Time Indicator
    ASHRAEClearSky,          !- Solar Model Indicator
    ,                        !- Beam Solar Day Schedule Name
    ,                        !- Diffuse Solar Day Schedule Name
    ,                        !- ASHRAE Clear Sky Optical Depth for Beam Irradiance (taub) {dimensionless}
    ,                        !- ASHRAE Clear Sky Optical Depth for Diffuse Irradiance (taud) {dimensionless}
    0.00;                    !- Sky Clearness

! Phoenix Sky Harbor Intl Ap_AZ_USA Annual Cooling (DB=>MWB) 1%, MaxDB=42.3°C MWB=21°C
SizingPeriod:DesignDay,
    Phoenix Sky Harbor Intl Ap Ann Clg 1% Condns DB=>MWB,  !- Name
    7,                       !- Month
    21,                      !- Day of Month
    SummerDesignDay,         !- Day Type
    42.3,                    !- Maximum Dry-Bulb Temperature {C}
    12,                      !- Daily Dry-Bulb Temperature Range {deltaC}
    DefaultMultipliers,      !- Dry-Bulb Temperature Range Modifier Type
    ,                        !- Dry-Bulb Temperature Range Modifier Day Schedule Name
    Wetbulb,                 !- Humidity Condition Type
    21,                      !- Wetbulb or DewPoint at Maximum Dry-Bulb {C}
    ,                        !- Humidity Condition Day Schedule Name
    ,                        !- Humidity Ratio at Maximum Dry-Bulb {kgWater/kgDryAir}
    ,                        !- Enthalpy at Maximum Dry-Bulb {J/kg}
    ,                        !- Daily Wet-Bulb Temperature Range {deltaC}
    97342.,                  !- Barometric Pressure {Pa}
    4.1,                     !- Wind Speed {m/s}
    260,                     !- Wind Direction {deg}
    No,                      !- Rain Indicator
    No,                      !- Snow Indicator
    No,                      !- Daylight Saving Time Indicator
    ASHRAETau,               !- Solar Model Indicator
    ,                        !- Beam Solar Day Schedule Name
    ,                        !- Diffuse Solar Day Schedule Name
    0.588,                   !- ASHRAE Clear Sky Optical Depth for Beam Irradiance (taub) {dimensionless}
    1.653;                   !- ASHRAE Clear Sky Optical Depth for Diffuse Irradiance (taud) {dimensionless}


!-   ===========  ALL OBJECTS IN CLASS: RUNPERIOD ===========

RunPeriod,
    Run Period 1,            !- Name
    7,                       !- Begin Month
    1,                       !- Begin Day of Month
    ,                        !- Begin Year
    7,                       !- End Month
    31,                      !- End Day of Month
    ,                        !- End Year
    Tuesday,                 !- Day of Week for Start Day
    Yes,                     !- Use Weather File Holidays and Special Days
    Yes,                     !- Use Weather File Daylight Saving Period
    No,                      !- Apply Weekend Holiday Rule
    Yes,                     !- Use Weather File Rain Indicators
    Yes;                     !- Use Weather File Snow Indicators


!-   ===========  ALL OBJECTS IN CLASS: SITE:GROUNDTEMPERATURE:BUILDINGSURFACE ===========

Site:GroundTemperature:BuildingSurface,
    20.03,                   !- January Ground Temperature {C}
    20.03,                   !- February Ground Temperature {C}
    20.13,                   !- March Ground Temperature {C}
    20.30,                   !- April Ground Temperature {C}
    20.43,                   !- May Ground Temperature {C}
    20.52,                   !- June Ground Temperature {C}
    20.62,                   !- July Ground Temperature {C}
    20.77,                   !- August Ground Temperature {C}
    20.78,                   !- September Ground Temperature {C}
    20.55,                   !- October Ground Temperature {C}
    20.44,                   !- November Ground Temperature {C}
    20.20;                   !- December Ground Temperature {C}


!-   ===========  ALL OBJECTS IN CLASS: SCHEDULETYPELIMITS ===========

ScheduleTypeLimits,
    Any Number;              !- Name

ScheduleTypeLimits,
    Fraction,                !- Name
    0.0,                     !- Lower Limit Value
    1.0,                     !- Upper Limit Value
    CONTINUOUS;              !- Numeric Type

ScheduleTypeLimits,
    Temperature,             !- Name
    -60,                     !- Lower Limit Value
    200,                     !- Upper Limit Value
    CONTINUOUS,              !- Numeric Type
    Temperature;             !- Unit Type

ScheduleTypeLimits,
    Control Type,            !- Name
    0,                       !- Lower Limit Value
    4,                       !- Upper Limit Value
    DISCRETE;                !- Numeric Type

ScheduleTypeLimits,
    On/Off,                  !- Name
    0,                       !- Lower Limit Value
    1,                       !- Upper Limit Value
    DISCRETE;                !- Numeric Type

ScheduleTypeLimits,
    FlowRate,                !- Name
    0.0,                     !- Lower Limit Value
    10,                      !- Upper Limit Value
    CONTINUOUS;              !- Numeric Type

!
! -------------------------------------------------------------
! New objects created from ExpandObjects
! -------------------------------------------------------------
!
ScheduleTypeLimits,
    HVACTemplate Any Number; !- Name


!-   ===========  ALL OBJECTS IN CLASS: SCHEDULE:COMPACT ===========

Schedule:Compact,
    AlwaysOff,               !- Name
    Fraction,                !- Schedule Type Limits Name
    Through: 12/31,          !- Field 1
    For: AllDays,            !- Field 2
    Until: 24:00,            !- Field 3
    0;                       !- Field 4

Schedule:Compact,
    AlwaysOn,                !- Name
    Fraction,                !- Schedule Type Limits Name
    Through: 12/31,          !- Field 1
    For: AllDays,            !- Field 2
    Until: 24:00,            !- Field 3
    1;                       !- Field 4

Schedule:Compact,
    OCCUPY-1,                !- Name
    Fraction,                !- Schedule Type Limits Name
    Through: 12/31,          !- Field 1
    For: WeekDays SummerDesignDay CustomDay1 CustomDay2,  !- Field 2
    Until: 8:00,             !- Field 3
    0.0,                     !- Field 4
    Until: 11:00,            !- Field 5
    1.00,                    !- Field 6
    Until: 12:00,            !- Field 7
    0.80,                    !- Field 8
    Until: 13:00,            !- Field 9
    0.40,                    !- Field 10
    Until: 14:00,            !- Field 11
    0.80,                    !- Field 12
    Until: 18:00,            !- Field 13
    1.00,                    !- Field 14
    Until: 19:00,            !- Field 15
    0.50,                    !- Field 16
    Until: 24:00,            !- Field 17
    0.0,                     !- Field 18
    For: Weekends WinterDesignDay Holiday,  !- Field 19
    Until: 24:00,            !- Field 20
    0.0;                     !- Field 21

Schedule:Compact,
    LIGHTS-1,                !- Name
    Fraction,                !- Schedule Type Limits Name
    Through: 12/31,          !- Field 1
    For: WeekDays SummerDesignDay CustomDay1 CustomDay2,  !- Field 2
    Until: 8:00,             !- Field 3
    0.05,                    !- Field 4
    Until: 9:00,             !- Field 5
    0.9,                     !- Field 6
    Until: 10:00,            !- Field 7
    0.95,                    !- Field 8
    Until: 11:00,            !- Field 9
    1.00,                    !- Field 10
    Until: 12:00,            !- Field 11
    0.95,                    !- Field 12
    Until: 13:00,            !- Field 13
    0.8,                     !- Field 14
    Until: 14:00,            !- Field 15
    0.9,                     !- Field 16
    Until: 18:00,            !- Field 17
    1.00,                    !- Field 18
    Until: 19:00,            !- Field 19
    0.60,                    !- Field 20
    Until: 21:00,            !- Field 21
    0.20,                    !- Field 22
    Until: 24:00,            !- Field 23
    0.05,                    !- Field 24
    For: Weekends WinterDesignDay Holiday,  !- Field 25
    Until: 24:00,            !- Field 26
    0.05;                    !- Field 27

Schedule:Compact,
    EQUIP-1,                 !- Name
    Fraction,                !- Schedule Type Limits Name
    Through: 12/31,          !- Field 1
    For: WeekDays SummerDesignDay CustomDay1 CustomDay2,  !- Field 2
    Until: 8:00,             !- Field 3
    0.02,                    !- Field 4
    Until: 9:00,             !- Field 5
    0.4,                     !- Field 6
    Until: 14:00,            !- Field 7
    0.9,                     !- Field 8
    Until: 15:00,            !- Field 9
    0.8,                     !- Field 10
    Until: 16:00,            !- Field 11
    0.7,                     !- Field 12
    Until: 18:00,            !- Field 13
    0.5,                     !- Field 14
    Until: 20:00,            !- Field 15
    0.3,                     !- Field 16
    Until: 24:00,            !- Field 17
    0.02,                    !- Field 18
    For: Weekends WinterDesignDay Holiday,  !- Field 19
    Until: 24:00,            !- Field 20
    0.2;                     !- Field 21

Schedule:Compact,
    INFIL-SCH,               !- Name
    Fraction,                !- Schedule Type Limits Name
    Through: 3/31,           !- Field 1
    For: AllDays,            !- Field 2
    Until: 24:00,            !- Field 3
    1.0,                     !- Field 4
    Through: 10/31,          !- Field 5
    For: AllDays,            !- Field 6
    Until: 24:00,            !- Field 7
    0.0,                     !- Field 8
    Through: 12/31,          !- Field 9
    For: AllDays,            !- Field 10
    Until: 24:00,            !- Field 11
    1.0;                     !- Field 12

Schedule:Compact,
    ActSchd,                 !- Name
    Any Number,              !- Schedule Type Limits Name
    Through: 12/31,          !- Field 1
    For: AllDays,            !- Field 2
    Until: 24:00,            !- Field 3
    117.239997864;           !- Field 4

Schedule:Compact,
    ShadeTransSch,           !- Name
    Fraction,                !- Schedule Type Limits Name
    Through: 12/31,          !- Field 1
    For: AllDays,            !- Field 2
    Until: 24:00,            !- Field 3
    0.0;                     !- Field 4

Schedule:Compact,
    Htg-SetP-Sch,            !- Name
    Temperature,             !- Schedule Type Limits Name
    Through: 12/31,          !- Field 1
    For: SummerDesignDay,    !- Field 2
    Until: 24:00,            !- Field 3
    16.7,                    !- Field 4
    For: WinterDesignDay,    !- Field 5
    Until: 24:00,            !- Field 6
    22.2,                    !- Field 7
    For: WeekDays,           !- Field 8
    Until: 6:00,             !- Field 9
    16.7,                    !- Field 10
    Until: 20:00,            !- Field 11
    22.2,                    !- Field 12
    Until: 24:00,            !- Field 13
    16.7,                    !- Field 14
    For: WeekEnds Holiday,   !- Field 15
    Until: 24:00,            !- Field 16
    16.7,                    !- Field 17
    For: AllOtherDays,       !- Field 18
    Until: 24:00,            !- Field 19
    16.7;                    !- Field 20

Schedule:Compact,
    PlenumHtg-SetP-Sch,      !- Name
    Temperature,             !- Schedule Type Limits Name
    Through: 12/31,          !- Field 1
    For: AllDays,            !- Field 2
    Until: 24:00,            !- Field 3
    12.8;                    !- Field 4

Schedule:Compact,
    Clg-SetP-Sch,            !- Name
    Temperature,             !- Schedule Type Limits Name
    Through: 12/31,          !- Field 1
    For: SummerDesignDay,    !- Field 2
    Until: 24:00,            !- Field 3
    23.9,                    !- Field 4
    For: WinterDesignDay,    !- Field 5
    Until: 24:00,            !- Field 6
    29.4,                    !- Field 7
    For: WeekDays,           !- Field 8
    Until: 6:00,             !- Field 9
    29.4,                    !- Field 10
    Until: 20:00,            !- Field 11
    23.9,                    !- Field 12
    Until: 24:00,            !- Field 13
    29.4,                    !- Field 14
    For: WeekEnds Holiday,   !- Field 15
    Until: 24:00,            !- Field 16
    29.4,                    !- Field 17
    For: AllOtherDays,       !- Field 18
    Until: 24:00,            !- Field 19
    29.4;                    !- Field 20

Schedule:Compact,
    PlenumClg-SetP-Sch,      !- Name
    Temperature,             !- Schedule Type Limits Name
    Through: 12/31,          !- Field 1
    For: AllDays,            !- Field 2
    Until: 24:00,            !- Field 3
    40.0;                    !- Field 4

Schedule:Compact,
    Zone Control Type Sched, !- Name
    Control Type,            !- Schedule Type Limits Name
    Through: 12/31,          !- Field 1
    For: SummerDesignDay,    !- Field 2
    Until: 24:00,            !- Field 3
    2,                       !- Field 4
    For: WinterDesignDay,    !- Field 5
    Until: 24:00,            !- Field 6
    1,                       !- Field 7
    For: AllOtherDays,       !- Field 8
    Until: 24:00,            !- Field 9
    4;                       !- Field 10

Schedule:Compact,
    Min OA Sched,            !- Name
    Fraction,                !- Schedule Type Limits Name
    Through: 12/31,          !- Field 1
    For: Weekdays,           !- Field 2
    Until: 6:00,             !- Field 3
    0.02,                    !- Field 4
    Until: 20:00,            !- Field 5
    1.0,                     !- Field 6
    Until: 24:00,            !- Field 7
    0.02,                    !- Field 8
    For: AllOtherDays,       !- Field 9
    Until: 24:00,            !- Field 10
    0.02;                    !- Field 11

Schedule:Compact,
    FanAvailSched,           !- Name
    Fraction,                !- Schedule Type Limits Name
    Through: 3/31,           !- Field 1
    For: AllDays,            !- Field 2
    Until: 24:00,            !- Field 3
    1.0,                     !- Field 4
    Through: 9/30,           !- Field 5
    For: WeekDays,           !- Field 6
    Until: 6:00,             !- Field 7
    0.0,                     !- Field 8
    Until: 20:00,            !- Field 9
    1.0,                     !- Field 10
    Until: 24:00,            !- Field 11
    0.0,                     !- Field 12
    For: SummerDesignDay WinterDesignDay,  !- Field 13
    Until: 24:00,            !- Field 14
    1.0,                     !- Field 15
    For: AllOtherDays,       !- Field 16
    Until: 24:00,            !- Field 17
    0.0,                     !- Field 18
    Through: 12/31,          !- Field 19
    For: AllDays,            !- Field 20
    Until: 24:00,            !- Field 21
    1.0;                     !- Field 22

Schedule:Compact,
    CoolingCoilAvailSched,   !- Name
    Fraction,                !- Schedule Type Limits Name
    Through: 12/31,          !- Field 1
    For: WeekDays,           !- Field 2
    Until: 6:00,             !- Field 3
    0.0,                     !- Field 4
    Until: 20:00,            !- Field 5
    1.0,                     !- Field 6
    Until: 24:00,            !- Field 7
    0.0,                     !- Field 8
    For: SummerDesignDay WinterDesignDay,  !- Field 9
    Until: 24:00,            !- Field 10
    1.0,                     !- Field 11
    For: AllOtherDays,       !- Field 12
    Until: 24:00,            !- Field 13
    0.0;                     !- Field 14

Schedule:Compact,
    CoolingPumpAvailSched,   !- Name
    Fraction,                !- Schedule Type Limits Name
    Through: 12/31,          !- Field 1
    For: AllDays,            !- Field 2
    Until: 24:00,            !- Field 3
    1.0;                     !- Field 4

Schedule:Compact,
    ReheatCoilAvailSched,    !- Name
    Fraction,                !- Schedule Type Limits Name
    Through: 3/31,           !- Field 1
    For: AllDays,            !- Field 2
    Until: 24:00,            !- Field 3
    1.0,                     !- Field 4
    Through: 9/30,           !- Field 5
    For: WeekDays,           !- Field 6
    Until: 6:00,             !- Field 7
    0.0,                     !- Field 8
    Until: 20:00,            !- Field 9
    1.0,                     !- Field 10
    Until: 24:00,            !- Field 11
    0.0,                     !- Field 12
    For: SummerDesignDay WinterDesignDay,  !- Field 13
    Until: 24:00,            !- Field 14
    1.0,                     !- Field 15
    For: AllOtherDays,       !- Field 16
    Until: 24:00,            !- Field 17
    0.0,                     !- Field 18
    Through: 12/31,          !- Field 19
    For: AllDays,            !- Field 20
    Until: 24:00,            !- Field 21
    1.0;                     !- Field 22

Schedule:Compact,
    CW Loop Temp Schedule,   !- Name
    Temperature,             !- Schedule Type Limits Name
    Through: 12/31,          !- Field 1
    For: AllDays,            !- Field 2
    Until: 24:00,            !- Field 3
    7.22;                    !- Field 4

Schedule:Compact,
    HW Loop Temp Schedule,   !- Name
    Temperature,             !- Schedule Type Limits Name
    Through: 12/31,          !- Field 1
    For: AllDays,            !- Field 2
    Until: 24:00,            !- Field 3
    82;                      !- Field 4

Schedule:Compact,
    PlantOnSched,            !- Name
    Fraction,                !- Schedule Type Limits Name
    Through: 12/31,          !- Field 1
    For: AllDays,            !- Field 2
    Until: 24:00,            !- Field 3
    1.0;                     !- Field 4

Schedule:Compact,
    Seasonal Reset Supply Air Temp Sch,  !- Name
    Temperature,             !- Schedule Type Limits Name
    Through: 3/31,           !- Field 1
    For: AllDays,            !- Field 2
    Until: 24:00,            !- Field 3
    16.0,                    !- Field 4
    Through: 9/30,           !- Field 5
    For: AllDays,            !- Field 6
    Until: 24:00,            !- Field 7
    13.0,                    !- Field 8
    Through: 12/31,          !- Field 9
    For: AllDays,            !- Field 10
    Until: 24:00,            !- Field 11
    16.0;                    !- Field 12

Schedule:Compact,
    OA Cooling Supply Air Temp Sch,  !- Name
    Temperature,             !- Schedule Type Limits Name
    Through: 12/31,          !- Field 1
    For: AllDays,            !- Field 2
    Until: 24:00,            !- Field 3
    11.5;                    !- Field 4

Schedule:Compact,
    OA Heating Supply Air Temp Sch,  !- Name
    Temperature,             !- Schedule Type Limits Name
    Through: 12/31,          !- Field 1
    For: AllDays,            !- Field 2
    Until: 24:00,            !- Field 3
    4.5;                     !- Field 4

Schedule:Compact,
    LightingTarget,          !- Name
    Any Number,              !- Schedule Type Limits Name
    Through: 12/31,          !- Field 1
    For: AllDays,            !- Field 2
    Until: 7:00,             !- Field 3
    0,                       !- Field 4
    Until: 19:00,            !- Field 5
    32.5,                    !- Field 6
    Until: 24:00,            !- Field 7
    0;                       !- Field 8

Schedule:Compact,
    HVACTemplate-Always 24,  !- Name
    HVACTemplate Any Number, !- Schedule Type Limits Name
    Through: 12/31,          !- Field 1
    For: AllDays,            !- Field 2
    Until: 24:00,            !- Field 3
    24;                      !- Field 4

Schedule:Compact,
    HVACTemplate-Always 4,   !- Name
    HVACTemplate Any Number, !- Schedule Type Limits Name
    Through: 12/31,          !- Field 1
    For: AllDays,            !- Field 2
    Until: 24:00,            !- Field 3
    4;                       !- Field 4

Schedule:Compact,
    HVACTemplate-Always 1,   !- Name
    HVACTemplate Any Number, !- Schedule Type Limits Name
    Through: 12/31,          !- Field 1
    For: AllDays,            !- Field 2
    Until: 24:00,            !- Field 3
    1;                       !- Field 4

Schedule:Compact,
    HVACTemplate-Always 70,  !- Name
    HVACTemplate Any Number, !- Schedule Type Limits Name
    Through: 12/31,          !- Field 1
    For: AllDays,            !- Field 2
    Until: 24:00,            !- Field 3
    70;                      !- Field 4


!-   ===========  ALL OBJECTS IN CLASS: MATERIAL ===========

!
! Site:GroundTemperature:BuildingSurface,20.03,20.03,20.13,20.30,20.43,20.52,20.62,20.77,20.78,20.55,20.44,20.20;
Material,
    WD10,                    !- Name
    MediumSmooth,            !- Roughness
    0.667,                   !- Thickness {m}
    0.115,                   !- Conductivity {W/m-K}
    513,                     !- Density {kg/m3}
    1381,                    !- Specific Heat {J/kg-K}
    0.9,                     !- Thermal Absorptance
    0.78,                    !- Solar Absorptance
    0.78;                    !- Visible Absorptance

Material,
    RG01,                    !- Name
    Rough,                   !- Roughness
    1.2700000E-02,           !- Thickness {m}
    1.442000,                !- Conductivity {W/m-K}
    881.0000,                !- Density {kg/m3}
    1674.000,                !- Specific Heat {J/kg-K}