! LBuilding-G180.idf
! Basic file description:  1 story L shaped building divided eight conditioned zones
!
! Highlights:              Highlight the use of Compliance:Building to rotate the building for Appendix G baselines.
!
! Simulation Location/Run: CHICAGO_IL_*USA TMY2-94846, 2 design days, 2 run periods,
!                          Run Control executes the run periods using the weather file
!
! Location:                Chicago, IL
!
! Design Days:             CHICAGO_IL_USA Annual Heating 99% Design Conditions DB, MaxDB= -17.3°C
!                          CHICAGO_IL_USA Annual Cooling 1% Design Conditions, MaxDB=  31.5°C MCWB=  23.0°C
!
! Run Period (Weather File): 1/1 through 12/31, CHICAGO_IL_USA TMY2-94846
!
! Run Control:             Zone and System sizing with weather file run control (no design days run)
!
! Building: L shaped building.
!           File Created by EP-Quick version: 1.5  at: 4/1/2009   12:40:00 PM
!
! Floor Area:        10500 ft2
! Number of Stories: 1
!
! Zone Description Details:
!
! Internal gains description:     lighting is 1.75 watts/ft2, office equip is 0.75 watts/ft2. There is 1 occupant
!                                 per 250 ft2 of floor area.
!
! Interzone Surfaces:             6 interzone surfaces (see diagram)
! Internal Mass:                  None
! People:                         1 occupant per 250 ft2
! Lights:                         1.75 W/ft2
! Windows:                        All windows are 5 ft x 3 ft and 2003 Dbl Clear 6mm/6mm Air
!
! Doors:                          None
!
! Detached Shading:               None
! Daylight:                       None
! Natural Ventilation:            None
! Compact Schedules:              Yes
!
! HVAC:                           HVAC Templates for Furnace DX.
!
! Zonal Equipment:                HVAC Template for Furnace DX
! Central Air Handling Equipment: No
! System Equipment Autosize:      Yes
! Purchased Cooling:              None
! Purchased Heating:              None
! Coils:                          DX
! Pumps:                          None
! Boilers:                        None
! Chillers:                       None
!
! Results:
! Standard Reports:               All
! Timestep or Hourly Variables:   Hourly
! Time bins Report:               None
! HTML Report:                    Yes
! Environmental Emissions:        None
! Utility Tariffs:                None

  Version,24.1;

  Building,
    LBuilding-G180,          !- Name
    0,                       !- North Axis {deg}
    Suburbs,                 !- Terrain
    0.04,                    !- Loads Convergence Tolerance Value {W}
    0.4,                     !- Temperature Convergence Tolerance Value {deltaC}
    FullInteriorAndExterior, !- Solar Distribution
    20,                      !- Maximum Number of Warmup Days
    6;                       !- Minimum Number of Warmup Days

  Compliance:Building,
    180;                     !- Building Rotation for Appendix G {deg}

  Timestep,4;

  GlobalGeometryRules,
    UpperLeftCorner,         !- Starting Vertex Position
    Counterclockwise,        !- Vertex Entry Direction
    World,                   !- Coordinate System
    World,                   !- Daylighting Reference Point Coordinate System
    World;                   !- Rectangular Surface Coordinate System

  RunPeriod,
    Run Period 1,            !- Name
    1,                       !- Begin Month
    1,                       !- Begin Day of Month
    ,                        !- Begin Year
    12,                      !- End Month
    31,                      !- End Day of Month
    ,                        !- End Year
    ,                        !- Day of Week for Start Day
    Yes,                     !- Use Weather File Holidays and Special Days
    Yes,                     !- Use Weather File Daylight Saving Period
    Yes,                     !- Apply Weekend Holiday Rule
    Yes,                     !- Use Weather File Rain Indicators
    Yes;                     !- Use Weather File Snow Indicators

  Site:Location,
    CHICAGO_IL_USA TMY2-94846,  !- Name
    41.78,                   !- Latitude {deg}
    -87.75,                  !- Longitude {deg}
    -6.00,                   !- Time Zone {hr}
    190.00;                  !- Elevation {m}

  SimulationControl,
    Yes,                     !- Do Zone Sizing Calculation
    Yes,                     !- Do System Sizing Calculation
    No,                      !- Do Plant Sizing Calculation
    No,                      !- Run Simulation for Sizing Periods
    Yes,                     !- Run Simulation for Weather File Run Periods
    No,                      !- Do HVAC Sizing Simulation for Sizing Periods
    1;                       !- Maximum Number of HVAC Sizing Simulation Passes

  SizingPeriod:DesignDay,
    CHICAGO_IL_USA Annual Heating 99% Design Conditions DB,  !- Name
    1,                       !- Month
    21,                      !- Day of Month
    WinterDesignDay,         !- Day Type
    -17.3,                   !- Maximum Dry-Bulb Temperature {C}
    0.0,                     !- Daily Dry-Bulb Temperature Range {deltaC}
    ,                        !- Dry-Bulb Temperature Range Modifier Type
    ,                        !- Dry-Bulb Temperature Range Modifier Day Schedule Name
    Wetbulb,                 !- Humidity Condition Type
    -17.3,                   !- Wetbulb or DewPoint at Maximum Dry-Bulb {C}
    ,                        !- Humidity Condition Day Schedule Name
    ,                        !- Humidity Ratio at Maximum Dry-Bulb {kgWater/kgDryAir}
    ,                        !- Enthalpy at Maximum Dry-Bulb {J/kg}
    ,                        !- Daily Wet-Bulb Temperature Range {deltaC}
    99063.,                  !- Barometric Pressure {Pa}
    4.9,                     !- Wind Speed {m/s}
    270,                     !- Wind Direction {deg}
    No,                      !- Rain Indicator
    No,                      !- Snow Indicator
    No,                      !- Daylight Saving Time Indicator
    ASHRAEClearSky,          !- Solar Model Indicator
    ,                        !- Beam Solar Day Schedule Name
    ,                        !- Diffuse Solar Day Schedule Name
    ,                        !- ASHRAE Clear Sky Optical Depth for Beam Irradiance (taub) {dimensionless}
    ,                        !- ASHRAE Clear Sky Optical Depth for Diffuse Irradiance (taud) {dimensionless}
    0.0;                     !- Sky Clearness

 ! CHICAGO_IL_USA Annual Cooling 1% Design Conditions, MaxDB=  31.5°C MCWB=  23.0°C

  SizingPeriod:DesignDay,
    CHICAGO_IL_USA Annual Cooling 1% Design Conditions DB/MCWB,  !- Name
    7,                       !- Month
    21,                      !- Day of Month
    SummerDesignDay,         !- Day Type
    31.5,                    !- Maximum Dry-Bulb Temperature {C}
    10.7,                    !- Daily Dry-Bulb Temperature Range {deltaC}
    ,                        !- Dry-Bulb Temperature Range Modifier Type
    ,                        !- Dry-Bulb Temperature Range Modifier Day Schedule Name
    Wetbulb,                 !- Humidity Condition Type
    23.0,                    !- Wetbulb or DewPoint at Maximum Dry-Bulb {C}
    ,                        !- Humidity Condition Day Schedule Name
    ,                        !- Humidity Ratio at Maximum Dry-Bulb {kgWater/kgDryAir}
    ,                        !- Enthalpy at Maximum Dry-Bulb {J/kg}
    ,                        !- Daily Wet-Bulb Temperature Range {deltaC}
    99063.,                  !- Barometric Pressure {Pa}
    5.3,                     !- Wind Speed {m/s}
    230,                     !- Wind Direction {deg}
    No,                      !- Rain Indicator
    No,                      !- Snow Indicator
    No,                      !- Daylight Saving Time Indicator
    ASHRAEClearSky,          !- Solar Model Indicator
    ,                        !- Beam Solar Day Schedule Name
    ,                        !- Diffuse Solar Day Schedule Name
    ,                        !- ASHRAE Clear Sky Optical Depth for Beam Irradiance (taub) {dimensionless}
    ,                        !- ASHRAE Clear Sky Optical Depth for Diffuse Irradiance (taud) {dimensionless}
    1.0;                     !- Sky Clearness

  SurfaceConvectionAlgorithm:Inside,TARP;

  SurfaceConvectionAlgorithm:Outside,TARP;

  HeatBalanceAlgorithm,ConductionTransferFunction;

  Site:GroundTemperature:BuildingSurface,20.03,20.03,20.13,20.30,20.43,20.52,20.62,20.77,20.78,20.55,20.44,20.20;

  ScheduleTypeLimits,
    Fraction,                !- Name
    0.0,                     !- Lower Limit Value
    1.0,                     !- Upper Limit Value
    CONTINUOUS;              !- Numeric Type

  ScheduleTypeLimits,
    Temperature,             !- Name
    -60,                     !- Lower Limit Value
    200,                     !- Upper Limit Value
    CONTINUOUS,              !- Numeric Type
    Temperature;             !- Unit Type

  ScheduleTypeLimits,
    AnyNumber;               !- Name

  ScheduleTypeLimits,
    Any Number;              !- Name

  Output:Surfaces:Drawing,DXF;

  Output:Surfaces:List,Details;

  Output:VariableDictionary,IDF;

  Output:Constructions,Constructions;

  OutputControl:Table:Style,
    HTML;                    !- Column Separator

  Output:Table:SummaryReports,
    AllSummary;              !- Report 1 Name

                             !- type
                             !- Variable
                             !- Variable
                             !- Variable
                             !- Variable

  Output:Table:Monthly,
    Building Loads - Cooling,!- Name
    2,                       !- Digits After Decimal
    Zone Air System Sensible Cooling Energy,  !- Variable or Meter 1 Name
    SumOrAverage,            !- Aggregation Type for Variable or Meter 1
    Zone Air System Sensible Cooling Rate,  !- Variable or Meter 2 Name
    Maximum,                 !- Aggregation Type for Variable or Meter 2
    Site Outdoor Air Drybulb Temperature,  !- Variable or Meter 3 Name
    ValueWhenMaximumOrMinimum,  !- Aggregation Type for Variable or Meter 3
    Site Outdoor Air Wetbulb Temperature,  !- Variable or Meter 4 Name
    ValueWhenMaximumOrMinimum,  !- Aggregation Type for Variable or Meter 4
    Zone Total Internal Latent Gain Energy,  !- Variable or Meter 5 Name
    SumOrAverage,            !- Aggregation Type for Variable or Meter 5
    Zone Total Internal Latent Gain Energy,  !- Variable or Meter 6 Name
    Maximum,                 !- Aggregation Type for Variable or Meter 6
    Site Outdoor Air Drybulb Temperature,  !- Variable or Meter 7 Name
    ValueWhenMaximumOrMinimum,  !- Aggregation Type for Variable or Meter 7
    Site Outdoor Air Wetbulb Temperature,  !- Variable or Meter 8 Name
    ValueWhenMaximumOrMinimum;  !- Aggregation Type for Variable or Meter 8

                             !- Variable
                             !- Variable

  Output:Table:Monthly,
    Building Loads - Heating,!- Name
    2,                       !- Digits After Decimal
    Zone Air System Sensible Heating Energy,  !- Variable or Meter 1 Name
    SumOrAverage,            !- Aggregation Type for Variable or Meter 1
    Zone Air System Sensible Heating Rate,  !- Variable or Meter 2 Name
    Maximum,                 !- Aggregation Type for Variable or Meter 2
    Site Outdoor Air Drybulb Temperature,  !- Variable or Meter 3 Name
    ValueWhenMaximumOrMinimum;  !- Aggregation Type for Variable or Meter 3

  Output:Variable,*,Heating Coil Heating Rate,hourly;

  Output:Variable,*,Cooling Coil Total Cooling Rate,hourly;

!-   ===========  ALL OBJECTS IN CLASS: REPORT METERFILEONLY ===========

  Output:Meter:MeterFileOnly,Electricity:Facility,monthly;

  Output:Meter:MeterFileOnly,Electricity:Building,monthly;

  Output:Meter:MeterFileOnly,InteriorLights:Electricity,monthly;

  Output:Meter:MeterFileOnly,Electricity:HVAC,monthly;

  Output:Meter:MeterFileOnly,NaturalGas:HVAC,monthly;

  Output:Meter:MeterFileOnly,NaturalGas:Facility,monthly;

  Output:Meter:MeterFileOnly,Electricity:Facility,runperiod;

  Output:Meter:MeterFileOnly,Electricity:Building,runperiod;

  Output:Meter:MeterFileOnly,InteriorLights:Electricity,runperiod;

  Output:Meter:MeterFileOnly,Electricity:HVAC,runperiod;

  Output:Meter:MeterFileOnly,NaturalGas:HVAC,runperiod;

  Output:Meter:MeterFileOnly,NaturalGas:Facility,runperiod;

  Material:AirGap,
    AirGap,                  !- Name
    0.1762;                  !- Thermal Resistance {m2-K/W}

  Material,
    ConcForIntFloor,         !- Name
    Smooth,                  !- Roughness
    0.1524,                  !- Thickness {m}
    1.73,                    !- Conductivity {W/m-K}
    2243,                    !- Density {kg/m3}
    837,                     !- Specific Heat {J/kg-K}
    0.9,                     !- Thermal Absorptance
    0.65,                    !- Solar Absorptance
    0.65;                    !- Visible Absorptance

  Material,
    FurnitureMaterial,       !- Name
    MediumSmooth,            !- Roughness
    0.1,                     !- Thickness {m}
    11,                      !- Conductivity {W/m-K}
    544.62,                  !- Density {kg/m3}
    1210,                    !- Specific Heat {J/kg-K}
    0.9,                     !- Thermal Absorptance
    0.78,                    !- Solar Absorptance
    0.78;                    !- Visible Absorptance

  Construction,
    FurnitureConstruction,   !- Name
    FurnitureMaterial;       !- Outside Layer

  Material,
    ConcForBotFloor,         !- Name
    Smooth,                  !- Roughness
    0.1524,                  !- Thickness {m}
    1.73,                    !- Conductivity {W/m-K}
    2243,                    !- Density {kg/m3}
    837,                     !- Specific Heat {J/kg-K}
    0.9,                     !- Thermal Absorptance
    0.65,                    !- Solar Absorptance
    0.65;                    !- Visible Absorptance

  Construction,
    BotFloorConstruction,    !- Name
    ConcForBotFloor;         !- Outside Layer

  Material,
    WoodForDoor,             !- Name
    Smooth,                  !- Roughness
    0.0635,                  !- Thickness {m}
    0.1211,                  !- Conductivity {W/m-K}
    593,                     !- Density {kg/m3}
    2510,                    !- Specific Heat {J/kg-K}
    0.9,                     !- Thermal Absorptance
    0.78,                    !- Solar Absorptance
    0.78;                    !- Visible Absorptance

  Material,
    GypForInterior,          !- Name
    Smooth,                  !- Roughness
    0.0191,                  !- Thickness {m}
    0.7264,                  !- Conductivity {W/m-K}
    1602,                    !- Density {kg/m3}
    837,                     !- Specific Heat {J/kg-K}
    0.9,                     !- Thermal Absorptance
    0.92,                    !- Solar Absorptance
    0.92;                    !- Visible Absorptance

  Material,
    ConcForInterior,         !- Name
    Smooth,                  !- Roughness
    0.2033,                  !- Thickness {m}
    0.5708,                  !- Conductivity {W/m-K}
    609,                     !- Density {kg/m3}
    837,                     !- Specific Heat {J/kg-K}
    0.9,                     !- Thermal Absorptance
    0.65,                    !- Solar Absorptance
    0.65;                    !- Visible Absorptance

  Construction,
    IntWallConstruction,     !- Name
    GypForInterior,          !- Outside Layer
    AirGap,                  !- Layer 2
    ConcForInterior,         !- Layer 3
    AirGap,                  !- Layer 4
    GypForInterior;          !- Layer 5

  Material,
    HF-A2,                   !- Name
    Smooth,                  !- Roughness
    0.1016,                  !- Thickness {m}
    1.332,                   !- Conductivity {W/m-K}
    2082,                    !- Density {kg/m3}
    920,                     !- Specific Heat {J/kg-K}
    0.9,                     !- Thermal Absorptance
    0.93,                    !- Solar Absorptance
    0.93;                    !- Visible Absorptance

  Material:NoMass,
    R-17,                    !- Name
    Rough,                   !- Roughness
    2.991904,                !- Thermal Resistance {m2-K/W}
    0.9,                     !- Thermal Absorptance
    0.75,                    !- Solar Absorptance
    0.75;                    !- Visible Absorptance

  Material,
    HF-C2,                   !- Name
    Smooth,                  !- Roughness
    0.1015,                  !- Thickness {m}
    0.3805,                  !- Conductivity {W/m-K}
    609,                     !- Density {kg/m3}
    837,                     !- Specific Heat {J/kg-K}
    0.9,                     !- Thermal Absorptance
    0.65,                    !- Solar Absorptance
    0.65;                    !- Visible Absorptance

  Material,
    HF-E1,                   !- Name
    Smooth,                  !- Roughness
    0.0191,                  !- Thickness {m}
    0.7264,                  !- Conductivity {W/m-K}
    1602,                    !- Density {kg/m3}
    837,                     !- Specific Heat {J/kg-K}
    0.9,                     !- Thermal Absorptance
    0.92,                    !- Solar Absorptance
    0.92;                    !- Visible Absorptance

                             !- Name

  Construction,
    FaceBrkIns4LWConcBlkGyp_R-17,  !- Name
    HF-A2,                   !- Outside Layer
    R-17,                    !- Layer 2
    HF-C2,                   !- Layer 3
    HF-E1;                   !- Layer 4

  Material,
    HF-E2,                   !- Name
    Smooth,                  !- Roughness
    0.0127,                  !- Thickness {m}
    1.436,                   !- Conductivity {W/m-K}
    881,                     !- Density {kg/m3}
    1674,                    !- Specific Heat {J/kg-K}
    0.9,                     !- Thermal Absorptance
    0.55,                    !- Solar Absorptance
    0.55;                    !- Visible Absorptance

  Material,
    HF-E3,                   !- Name
    Smooth,                  !- Roughness
    0.0095,                  !- Thickness {m}
    0.1903,                  !- Conductivity {W/m-K}
    1121,                    !- Density {kg/m3}
    1674,                    !- Specific Heat {J/kg-K}
    0.9,                     !- Thermal Absorptance
    0.75,                    !- Solar Absorptance
    0.75;                    !- Visible Absorptance

  Material:NoMass,
    R-21,                    !- Name
    Rough,                   !- Roughness
    3.695882,                !- Thermal Resistance {m2-K/W}
    0.9,                     !- Thermal Absorptance
    0.75,                    !- Solar Absorptance
    0.75;                    !- Visible Absorptance

  Material,
    HF-C15,                  !- Name
    Smooth,                  !- Roughness
    0.1524,                  !- Thickness {m}
    0.173,                   !- Conductivity {W/m-K}
    641,                     !- Density {kg/m3}
    837,                     !- Specific Heat {J/kg-K}
    0.9,                     !- Thermal Absorptance
    0.65,                    !- Solar Absorptance
    0.65;                    !- Visible Absorptance

  Material,
    HF-E5,                   !- Name
    Smooth,                  !- Roughness
    0.0191,                  !- Thickness {m}
    0.0605,                  !- Conductivity {W/m-K}
    481,                     !- Density {kg/m3}
    837,                     !- Specific Heat {J/kg-K}
    0.9,                     !- Thermal Absorptance
    0.32,                    !- Solar Absorptance
    0.32;                    !- Visible Absorptance

                             !- Name

  Construction,
    SlagFeltIns6LWConcGapAcoTile_R-21,  !- Name
    HF-E2,                   !- Outside Layer
    HF-E3,                   !- Layer 2
    R-21,                    !- Layer 3
    HF-C15,                  !- Layer 4
    AirGap,                  !- Layer 5
    HF-E5;                   !- Layer 6

  WindowMaterial:Glazing,
    CLEAR 6MM,               !- Name
    SpectralAverage,         !- Optical Data Type
    ,                        !- Window Glass Spectral Data Set Name
    .006,                    !- Thickness {m}
    .775,                    !- Solar Transmittance at Normal Incidence
    .071,                    !- Front Side Solar Reflectance at Normal Incidence
    .071,                    !- Back Side Solar Reflectance at Normal Incidence
    .881,                    !- Visible Transmittance at Normal Incidence
    .080,                    !- Front Side Visible Reflectance at Normal Incidence
    .080,                    !- Back Side Visible Reflectance at Normal Incidence
    .0,                      !- Infrared Transmittance at Normal Incidence
    .84,                     !- Front Side Infrared Hemispherical Emissivity
    .84,                     !- Back Side Infrared Hemispherical Emissivity
    .9;                      !- Conductivity {W/m-K}

  WindowMaterial:Gas,
    AIR 6MM,                 !- Name
    Air,                     !- Gas Type
    .0063;                   !- Thickness {m}

  Construction,
    WinLib_2003,             !- Name
    CLEAR 6MM,               !- Outside Layer
    AIR 6MM,                 !- Layer 2
    CLEAR 6MM;               !- Layer 3

                             !- Construction Name

  BuildingSurface:Detailed,
    Main_ExtWall_a_b,        !- Name
    Wall,                    !- Surface Type
    FaceBrkIns4LWConcBlkGyp_R-17,  !- Construction Name
    Main_Zone_a_b_g_l,       !- Zone Name
    ,                        !- Space Name
    Outdoors,                !- Outside Boundary Condition
    ,                        !- Outside Boundary Condition Object
    SunExposed,              !- Sun Exposure
    WindExposed,             !- Wind Exposure
    0.5,                     !- View Factor to Ground
    4,                       !- Number of Vertices
    0,48.76562,3.047851,  !- X,Y,Z ==> Vertex 1 {m}
    0,48.76562,0,  !- X,Y,Z ==> Vertex 2 {m}
    0,0,0,  !- X,Y,Z ==> Vertex 3 {m}
    0,0,3.047851;  !- X,Y,Z ==> Vertex 4 {m}

  FenestrationSurface:Detailed,
    Main_Window_a_b_1_1,     !- Name
    Window,                  !- Surface Type
    WinLib_2003,             !- Construction Name
    Main_ExtWall_a_b,        !- Building Surface Name
    ,                        !- Outside Boundary Condition Object
    0.5,                     !- View Factor to Ground
    ,                        !- Frame and Divider Name
    1,                       !- Multiplier
    4,                       !- Number of Vertices
    0,5.519998,2.285888,  !- X,Y,Z ==> Vertex 1 {m}
    0,5.519998,0.7619628,  !- X,Y,Z ==> Vertex 2 {m}
    0,4.605642,0.7619628,  !- X,Y,Z ==> Vertex 3 {m}
    0,4.605642,2.285888;  !- X,Y,Z ==> Vertex 4 {m}

  FenestrationSurface:Detailed,
    Main_Window_a_b_1_2,     !- Name
    Window,                  !- Surface Type
    WinLib_2003,             !- Construction Name
    Main_ExtWall_a_b,        !- Building Surface Name
    ,                        !- Outside Boundary Condition Object
    0.5,                     !- View Factor to Ground
    ,                        !- Frame and Divider Name
    1,                       !- Multiplier
    4,                       !- Number of Vertices
    0,11.04,2.285888,  !- X,Y,Z ==> Vertex 1 {m}
    0,11.04,0.7619628,  !- X,Y,Z ==> Vertex 2 {m}
    0,10.12564,0.7619628,  !- X,Y,Z ==> Vertex 3 {m}
    0,10.12564,2.285888;  !- X,Y,Z ==> Vertex 4 {m}

  FenestrationSurface:Detailed,
    Main_Window_a_b_1_3,     !- Name
    Window,                  !- Surface Type
    WinLib_2003,             !- Construction Name
    Main_ExtWall_a_b,        !- Building Surface Name
    ,                        !- Outside Boundary Condition Object
    0.5,                     !- View Factor to Ground
    ,                        !- Frame and Divider Name
    1,                       !- Multiplier
    4,                       !- Number of Vertices
    0,16.55999,2.285888,  !- X,Y,Z ==> Vertex 1 {m}
    0,16.55999,0.7619628,  !- X,Y,Z ==> Vertex 2 {m}
    0,15.64564,0.7619628,  !- X,Y,Z ==> Vertex 3 {m}
    0,15.64564,2.285888;  !- X,Y,Z ==> Vertex 4 {m}

  FenestrationSurface:Detailed,
    Main_Window_a_b_1_4,     !- Name
    Window,                  !- Surface Type
    WinLib_2003,             !- Construction Name
    Main_ExtWall_a_b,        !- Building Surface Name
    ,                        !- Outside Boundary Condition Object
    0.5,                     !- View Factor to Ground
    ,                        !- Frame and Divider Name
    1,                       !- Multiplier
    4,                       !- Number of Vertices
    0,22.07999,2.285888,  !- X,Y,Z ==> Vertex 1 {m}
    0,22.07999,0.7619628,  !- X,Y,Z ==> Vertex 2 {m}
    0,21.16564,0.7619628,  !- X,Y,Z ==> Vertex 3 {m}
    0,21.16564,2.285888;  !- X,Y,Z ==> Vertex 4 {m}

  FenestrationSurface:Detailed,
    Main_Window_a_b_1_5,     !- Name
    Window,                  !- Surface Type
    WinLib_2003,             !- Construction Name
    Main_ExtWall_a_b,        !- Building Surface Name
    ,                        !- Outside Boundary Condition Object
    0.5,                     !- View Factor to Ground
    ,                        !- Frame and Divider Name
    1,                       !- Multiplier
    4,                       !- Number of Vertices
    0,27.59999,2.285888,  !- X,Y,Z ==> Vertex 1 {m}
    0,27.59999,0.7619628,  !- X,Y,Z ==> Vertex 2 {m}
    0,26.68563,0.7619628,  !- X,Y,Z ==> Vertex 3 {m}
    0,26.68563,2.285888;  !- X,Y,Z ==> Vertex 4 {m}

  FenestrationSurface:Detailed,
    Main_Window_a_b_1_6,     !- Name
    Window,                  !- Surface Type
    WinLib_2003,             !- Construction Name
    Main_ExtWall_a_b,        !- Building Surface Name
    ,                        !- Outside Boundary Condition Object
    0.5,                     !- View Factor to Ground
    ,                        !- Frame and Divider Name
    1,                       !- Multiplier
    4,                       !- Number of Vertices
    0,33.11999,2.285888,  !- X,Y,Z ==> Vertex 1 {m}
    0,33.11999,0.7619628,  !- X,Y,Z ==> Vertex 2 {m}
    0,32.20564,0.7619628,  !- X,Y,Z ==> Vertex 3 {m}
    0,32.20564,2.285888;  !- X,Y,Z ==> Vertex 4 {m}

  FenestrationSurface:Detailed,
    Main_Window_a_b_1_7,     !- Name
    Window,                  !- Surface Type
    WinLib_2003,             !- Construction Name
    Main_ExtWall_a_b,        !- Building Surface Name
    ,                        !- Outside Boundary Condition Object
    0.5,                     !- View Factor to Ground
    ,                        !- Frame and Divider Name
    1,                       !- Multiplier
    4,                       !- Number of Vertices
    0,38.63999,2.285888,  !- X,Y,Z ==> Vertex 1 {m}
    0,38.63999,0.7619628,  !- X,Y,Z ==> Vertex 2 {m}
    0,37.72563,0.7619628,  !- X,Y,Z ==> Vertex 3 {m}
    0,37.72563,2.285888;  !- X,Y,Z ==> Vertex 4 {m}

  FenestrationSurface:Detailed,
    Main_Window_a_b_1_8,     !- Name
    Window,                  !- Surface Type
    WinLib_2003,             !- Construction Name
    Main_ExtWall_a_b,        !- Building Surface Name
    ,                        !- Outside Boundary Condition Object
    0.5,                     !- View Factor to Ground
    ,                        !- Frame and Divider Name
    1,                       !- Multiplier
    4,                       !- Number of Vertices
    0,44.15998,2.285888,  !- X,Y,Z ==> Vertex 1 {m}
    0,44.15998,0.7619628,  !- X,Y,Z ==> Vertex 2 {m}
    0,43.24563,0.7619628,  !- X,Y,Z ==> Vertex 3 {m}
    0,43.24563,2.285888;  !- X,Y,Z ==> Vertex 4 {m}

                             !- Construction Name

  BuildingSurface:Detailed,
    Main_ExtWall_b_c,        !- Name
    Wall,                    !- Surface Type
    FaceBrkIns4LWConcBlkGyp_R-17,  !- Construction Name
    Main_Zone_b_c_h_g,       !- Zone Name
    ,                        !- Space Name
    Outdoors,                !- Outside Boundary Condition
    ,                        !- Outside Boundary Condition Object
    SunExposed,              !- Sun Exposure
    WindExposed,             !- Wind Exposure
    0.5,                     !- View Factor to Ground
    4,                       !- Number of Vertices
    15.23926,48.76562,3.047851,  !- X,Y,Z ==> Vertex 1 {m}
    15.23926,48.76562,0,  !- X,Y,Z ==> Vertex 2 {m}
    0,48.76562,0,  !- X,Y,Z ==> Vertex 3 {m}
    0,48.76562,3.047851;  !- X,Y,Z ==> Vertex 4 {m}

  FenestrationSurface:Detailed,
    Main_Window_b_c_1_1,     !- Name
    Window,                  !- Surface Type
    WinLib_2003,             !- Construction Name
    Main_ExtWall_b_c,        !- Building Surface Name
    ,                        !- Outside Boundary Condition Object
    0.5,                     !- View Factor to Ground
    ,                        !- Frame and Divider Name
    1,                       !- Multiplier
    4,                       !- Number of Vertices
    4.038403,48.76562,2.285888,  !- X,Y,Z ==> Vertex 1 {m}
    4.038403,48.76562,0.7619628,  !- X,Y,Z ==> Vertex 2 {m}
    3.124048,48.76562,0.7619628,  !- X,Y,Z ==> Vertex 3 {m}
    3.124048,48.76562,2.285888;  !- X,Y,Z ==> Vertex 4 {m}

  FenestrationSurface:Detailed,
    Main_Window_b_c_1_2,     !- Name
    Window,                  !- Surface Type
    WinLib_2003,             !- Construction Name
    Main_ExtWall_b_c,        !- Building Surface Name
    ,                        !- Outside Boundary Condition Object
    0.5,                     !- View Factor to Ground
    ,                        !- Frame and Divider Name
    1,                       !- Multiplier
    4,                       !- Number of Vertices
    8.076806,48.76562,2.285888,  !- X,Y,Z ==> Vertex 1 {m}
    8.076806,48.76562,0.7619628,  !- X,Y,Z ==> Vertex 2 {m}
    7.162451,48.76562,0.7619628,  !- X,Y,Z ==> Vertex 3 {m}