!-Generator IDFEditor 1.34
!-Option OriginalOrderTop UseSpecialFormat
!-NOTE: All comments with '!-' are ignored by the IDFEditor and are generated automatically.
!-      Use '!' comments if they need to be retained when using the IDFEditor.
! LgOffVAVUsingBasement.idf
!
! Basic file description: Prototypical 6-story large office building of new (post-1980) vintage
! in southern U.S. with a central VAVS system.
!
! Highlights: large building, multipliers
!
! Run: autosizing using Chicago winter & summer design days; simulation - 1 winter, 1 summer day.
!
! Simulation Location/Run: CHICAGO_IL_USA TMY2-94846, 2 design days, 2 run periods,
!                          Run Control executes two run periods (see RUN PERIOD object)
!
! Location:                Chicago, IL
!
! Design Days:             CHICAGO_IL_USA Annual Heating 99% Design Conditions DB, MaxDB= -17.3°C
!                          CHICAGO_IL_USA Annual Cooling 1% Design Conditions, MaxDB=  31.5°C MCWB=  23.0°C
!
! Run Period (Weather File): Winter 1/14, Summer 7/7, CHICAGO_IL_USA TMY2-94846
!
! Run Control:             Zone and System sizing with weather file run control (no design days run)
! Building:
!    ______________________           Floor area: 8361 m2 (90,000 ft2)
!   |\                    /|          Dimensions: 45.72 m x 30.48 m (150 ft x 100 ft)
!   | \_________________ / |          Floor height: 3.048 m (10 ft), no plenum
!   |  |                |  |          6 conditioned floors with unconditioned basement
!   |  |                |  |          Shell characteristics
!   |  |                |  |30.48 m   Roof const: built-up roofing, 4" concrete,
!   |  |                |  |(100 ft)       insulation,air space, acoustic tile
!   |  |                |  |          Roof insulation: 2.22 m2-K/W (12.6 ft2-hr-F/Btu)
!   |  |________________|  |          Wall const: stone, insulation, air space, gypsum board
!   | /                  \ |          Wall insulation: 1.06 m2-K/W (6 ft2-hr-F/Btu)
!   |/____________________\|          Window const: double-pane
!        45.72 m (150 ft)             Window U-value: 3.4 W/m2-K (0.598 Btu/hr-ft2-F)
!                                     Window SHGC: 0.782 (0.71 SC)
!                                     Window-to-Wall Ratio (WWR): 0.50
!                                     Infiltration: 0.0 occupied hrs, 0.30 ACH unoccupied hrs; 2.0 ACH in basement
!                                     Basement Wall F-factor: 4.32 W/m-K (2.50 Btu/hr-ft-F)
!
! Each floor is modeled as four perimeter zones and one core zone. The perimeter
! zones are all 4.57m (15 ft) deep. Windows are modeled as a horizontal strip of
! glazing running the length of each perimeter wall from the middle to the top of
! the wall, for a Window-to-Wall Ratio (WWR) of 0.50. The 4 intermediate floors
! are modeled as 1 floor with a zone multiplier of 4 applied to each zone. The floors
! and ceilings of the zones on the intermediate floor are modeled as adiabatic surfaces.
!
! The building is oriented with its long axis east-west.
!
! Internal loads (peak) are :
!
! Occupancy 36.23 m2/person (390 ft2/person)
! Lighting load  12.59 watts/m2 (1.17 watts/ft2)
! Equipment load 8.07 watts/m2 (0.75 watt/ft2)
! Elevator load 27.75 KW (NOT IMPLEMENTED YET IN THIS FILE)
! Hot-water usage 0.889 l/hour/person (0.0039 gal/min/person) (NOT IMPLEMENTED YET IN THIS FILE)
! Occupied hours 8 through 18 weekdays, 8 to 13 weekends
! Detached Shading:               None
! Daylight:                       None
! Natural Ventilation:            None
! Compact Schedules:              Yes
! Solar Distribution:             MinimalShadowing
!
! System controls are:
!
! Heating 21.1 C (70 F) occupied hours, 12,8 C (55 F) unoccupied hours
! Cooling 23.9 C (75 F) occupied hours, 32.2 C (90 F) unoccupied hours
! The basement is unconditioned but has a constant heat source of 6766 watts representing
! the losses from the plant
! Heating and cooling turned on 1 hour early, and turned off 1 hour late
! Outside-air 25 m3/hr/person (15 CFM/person)
! Economizer with limit temperature at 20 C (68 F) (BUT IS SET TO NO ECONOMIZER IN THIS INPUT)
!
! HVAC:     Standard VAV system with minimum outside air , hot water reheat
!           coils, central chilled water cooling coil. Central Plant is single
!           hot water boiler, electric compression chiller with water cooled
!           condenser. All equipment is autosized.
!
!           The supply air temperature setpoint is established by a seasonal reset.
!
! Zonal Equipment:                AirTerminal:SingleDuct:VAV:Reheat
! Central Air Handling Equipment: Yes
! System Equipment Autosize:      Yes
! Purchased Cooling:              No
! Purchased Heating:              No
! Purchased Chilled Water:        No
! Purchased Hot Water:            No
! Coils:                          Coil:Cooling:Water, Coil:Heating:Water
! Pumps:                          Pump:VariableSpeed
! Boilers:                        Boiler:HotWater
! Chillers:                       Chiller:Electric
! Towers:                         CoolingTower:SingleSpeed
!
! Results:
! Standard Reports:               All Summary Predefined Reports
! Timestep or Hourly Variables:   TimeStep
! Time bins Report:               None
! HTML Report:                    Predefined All Summary
! Environmental Emissions:        None
! Utility Tariffs:                None

  Version,24.1;

  SimulationControl,
    Yes,                     !- Do Zone Sizing Calculation
    Yes,                     !- Do System Sizing Calculation
    Yes,                     !- Do Plant Sizing Calculation
    No,                      !- Run Simulation for Sizing Periods
    Yes,                     !- Run Simulation for Weather File Run Periods
    No,                      !- Do HVAC Sizing Simulation for Sizing Periods
    1;                       !- Maximum Number of HVAC Sizing Simulation Passes

  Building,
    Building,                !- Name
    0,                       !- North Axis {deg}
    Suburbs,                 !- Terrain
    0.04,                    !- Loads Convergence Tolerance Value {W}
    0.4,                     !- Temperature Convergence Tolerance Value {deltaC}
    MinimalShadowing,        !- Solar Distribution
    25,                      !- Maximum Number of Warmup Days
    6;                       !- Minimum Number of Warmup Days

  Timestep,4;

  SurfaceConvectionAlgorithm:Inside,Simple;

  SurfaceConvectionAlgorithm:Outside,SimpleCombined;

  HeatBalanceAlgorithm,ConductionTransferFunction;

  RunPeriod,
    Jan,                     !- Name
    1,                       !- Begin Month
    14,                      !- Begin Day of Month
    ,                        !- Begin Year
    1,                       !- End Month
    14,                      !- End Day of Month
    ,                        !- End Year
    Tuesday,                 !- Day of Week for Start Day
    Yes,                     !- Use Weather File Holidays and Special Days
    Yes,                     !- Use Weather File Daylight Saving Period
    Yes,                     !- Apply Weekend Holiday Rule
    Yes,                     !- Use Weather File Rain Indicators
    Yes;                     !- Use Weather File Snow Indicators

  RunPeriod,
    Jul,                     !- Name
    7,                       !- Begin Month
    7,                       !- Begin Day of Month
    ,                        !- Begin Year
    7,                       !- End Month
    7,                       !- End Day of Month
    ,                        !- End Year
    Tuesday,                 !- Day of Week for Start Day
    Yes,                     !- Use Weather File Holidays and Special Days
    Yes,                     !- Use Weather File Daylight Saving Period
    Yes,                     !- Apply Weekend Holiday Rule
    Yes,                     !- Use Weather File Rain Indicators
    Yes;                     !- Use Weather File Snow Indicators

! CHICAGO_IL_USA Annual Heating 99% Design Conditions DB, MaxDB= -17.3°C

  SizingPeriod:DesignDay,
    CHICAGO_IL_USA Annual Heating 99% Design Conditions DB,  !- Name
    1,                       !- Month
    21,                      !- Day of Month
    WinterDesignDay,         !- Day Type
    -17.3,                   !- Maximum Dry-Bulb Temperature {C}
    0.0,                     !- Daily Dry-Bulb Temperature Range {deltaC}
    ,                        !- Dry-Bulb Temperature Range Modifier Type
    ,                        !- Dry-Bulb Temperature Range Modifier Day Schedule Name
    Wetbulb,                 !- Humidity Condition Type
    -17.3,                   !- Wetbulb or DewPoint at Maximum Dry-Bulb {C}
    ,                        !- Humidity Condition Day Schedule Name
    ,                        !- Humidity Ratio at Maximum Dry-Bulb {kgWater/kgDryAir}
    ,                        !- Enthalpy at Maximum Dry-Bulb {J/kg}
    ,                        !- Daily Wet-Bulb Temperature Range {deltaC}
    99063.,                  !- Barometric Pressure {Pa}
    4.9,                     !- Wind Speed {m/s}
    270,                     !- Wind Direction {deg}
    No,                      !- Rain Indicator
    No,                      !- Snow Indicator
    No,                      !- Daylight Saving Time Indicator
    ASHRAEClearSky,          !- Solar Model Indicator
    ,                        !- Beam Solar Day Schedule Name
    ,                        !- Diffuse Solar Day Schedule Name
    ,                        !- ASHRAE Clear Sky Optical Depth for Beam Irradiance (taub) {dimensionless}
    ,                        !- ASHRAE Clear Sky Optical Depth for Diffuse Irradiance (taud) {dimensionless}
    0.0;                     !- Sky Clearness

! CHICAGO_IL_USA Annual Cooling 1% Design Conditions, MaxDB=  31.5°C MCWB=  23.0°C

  SizingPeriod:DesignDay,
    CHICAGO_IL_USA Annual Cooling 1% Design Conditions DB/MCWB,  !- Name
    7,                       !- Month
    21,                      !- Day of Month
    SummerDesignDay,         !- Day Type
    31.5,                    !- Maximum Dry-Bulb Temperature {C}
    10.7,                    !- Daily Dry-Bulb Temperature Range {deltaC}
    ,                        !- Dry-Bulb Temperature Range Modifier Type
    ,                        !- Dry-Bulb Temperature Range Modifier Day Schedule Name
    Wetbulb,                 !- Humidity Condition Type
    23.0,                    !- Wetbulb or DewPoint at Maximum Dry-Bulb {C}
    ,                        !- Humidity Condition Day Schedule Name
    ,                        !- Humidity Ratio at Maximum Dry-Bulb {kgWater/kgDryAir}
    ,                        !- Enthalpy at Maximum Dry-Bulb {J/kg}
    ,                        !- Daily Wet-Bulb Temperature Range {deltaC}
    99063.,                  !- Barometric Pressure {Pa}
    5.3,                     !- Wind Speed {m/s}
    230,                     !- Wind Direction {deg}
    No,                      !- Rain Indicator
    No,                      !- Snow Indicator
    No,                      !- Daylight Saving Time Indicator
    ASHRAEClearSky,          !- Solar Model Indicator
    ,                        !- Beam Solar Day Schedule Name
    ,                        !- Diffuse Solar Day Schedule Name
    ,                        !- ASHRAE Clear Sky Optical Depth for Beam Irradiance (taub) {dimensionless}
    ,                        !- ASHRAE Clear Sky Optical Depth for Diffuse Irradiance (taud) {dimensionless}
    1.0;                     !- Sky Clearness

  Site:Location,
    CHICAGO_IL_USA TMY2-94846,  !- Name
    41.78,                   !- Latitude {deg}
    -87.75,                  !- Longitude {deg}
    -6.00,                   !- Time Zone {hr}
    190.00;                  !- Elevation {m}

  Site:GroundTemperature:BuildingSurface,20.03,20.03,20.13,20.30,20.43,20.52,20.62,20.77,20.78,20.55,20.44,20.20;

  Material,
    ST01,                    !- Name
    MediumRough,             !- Roughness
    0.0254,                  !- Thickness {m}
    1.802,                   !- Conductivity {W/m-K}
    2243,                    !- Density {kg/m3}
    837,                     !- Specific Heat {J/kg-K}
    0.9,                     !- Thermal Absorptance
    0.65,                    !- Solar Absorptance
    0.65;                    !- Visible Absorptance

  Material:NoMass,
    IN-W,                    !- Name
    Rough,                   !- Roughness
    0.44,                    !- Thermal Resistance {m2-K/W}
    0.65,                    !- Thermal Absorptance
    0.65,                    !- Solar Absorptance
    0.65;                    !- Visible Absorptance

  Material:AirGap,
    AL21,                    !- Name
    0.157;                   !- Thermal Resistance {m2-K/W}

  Material,
    GP02,                    !- Name
    MediumSmooth,            !- Roughness
    0.015900001,             !- Thickness {m}
    0.16,                    !- Conductivity {W/m-K}
    801,                     !- Density {kg/m3}
    837,                     !- Specific Heat {J/kg-K}
    0.9,                     !- Thermal Absorptance
    0.75,                    !- Solar Absorptance
    0.75;                    !- Visible Absorptance

  Material,
    BR01,                    !- Name
    VeryRough,               !- Roughness
    0.0094999997,            !- Thickness {m}
    0.162,                   !- Conductivity {W/m-K}
    1121,                    !- Density {kg/m3}
    1464,                    !- Specific Heat {J/kg-K}
    0.9,                     !- Thermal Absorptance
    0.7,                     !- Solar Absorptance
    0.7;                     !- Visible Absorptance

  Material,
    CC24,                    !- Name
    MediumRough,             !- Roughness
    0.1016,                  !- Thickness {m}
    0.36,                    !- Conductivity {W/m-K}
    1282,                    !- Density {kg/m3}
    837,                     !- Specific Heat {J/kg-K}
    0.9,                     !- Thermal Absorptance
    0.65,                    !- Solar Absorptance
    0.65;                    !- Visible Absorptance

  Material:NoMass,
    IN-R,                    !- Name
    Rough,                   !- Roughness
    1.602,                   !- Thermal Resistance {m2-K/W}
    0.65,                    !- Thermal Absorptance
    0.65,                    !- Solar Absorptance
    0.65;                    !- Visible Absorptance

  Material:AirGap,
    AL33,                    !- Name
    0.162;                   !- Thermal Resistance {m2-K/W}

  Material,
    AC02,                    !- Name
    MediumSmooth,            !- Roughness
    0.0127,                  !- Thickness {m}
    0.057,                   !- Conductivity {W/m-K}
    288,                     !- Density {kg/m3}
    1339,                    !- Specific Heat {J/kg-K}
    0.9,                     !- Thermal Absorptance
    0.7,                     !- Solar Absorptance
    0.7;                     !- Visible Absorptance

  Material:NoMass,
    CP01,                    !- Name
    Rough,                   !- Roughness
    0.367,                   !- Thermal Resistance {m2-K/W}
    0.9,                     !- Thermal Absorptance
    0.75,                    !- Solar Absorptance
    0.75;                    !- Visible Absorptance

  Material,
    SOIL,                    !- Name
    Rough,                   !- Roughness
    0.609600067,             !- Thickness {m}
    1.730800033,             !- Conductivity {W/m-K}
    1842.069946289,          !- Density {kg/m3}
    1088.568091,             !- Specific Heat {J/kg-K}
    0.65,                    !- Thermal Absorptance
    0.65,                    !- Solar Absorptance
    0.65;                    !- Visible Absorptance

  Material,
    CC15,                    !- Name
    MediumRough,             !- Roughness
    0.1524,                  !- Thickness {m}
    1.802,                   !- Conductivity {W/m-K}
    2243,                    !- Density {kg/m3}
    837,                     !- Specific Heat {J/kg-K}
    0.9,                     !- Thermal Absorptance
    0.65,                    !- Solar Absorptance
    0.65;                    !- Visible Absorptance

  Material,
    MediumFurniture,         !- Name
    MediumSmooth,            !- Roughness
    0.57,                    !- Thickness {m}
    0.115,                   !- Conductivity {W/m-K}
    513,                     !- Density {kg/m3}
    1381,                    !- Specific Heat {J/kg-K}
    0.9,                     !- Thermal Absorptance
    0.78,                    !- Solar Absorptance
    0.78;                    !- Visible Absorptance

  WindowMaterial:Glazing,
    CLEAR 6MM,               !- Name
    SpectralAverage,         !- Optical Data Type
    ,                        !- Window Glass Spectral Data Set Name
    0.006,                   !- Thickness {m}
    0.775,                   !- Solar Transmittance at Normal Incidence
    0.071,                   !- Front Side Solar Reflectance at Normal Incidence
    0.071,                   !- Back Side Solar Reflectance at Normal Incidence
    0.881,                   !- Visible Transmittance at Normal Incidence
    0.08,                    !- Front Side Visible Reflectance at Normal Incidence
    0.08,                    !- Back Side Visible Reflectance at Normal Incidence
    0,                       !- Infrared Transmittance at Normal Incidence
    0.84,                    !- Front Side Infrared Hemispherical Emissivity
    0.84,                    !- Back Side Infrared Hemispherical Emissivity
    0.9;                     !- Conductivity {W/m-K}

  WindowMaterial:Gas,
    AIR 6MM,                 !- Name
    Air,                     !- Gas Type
    0.0063;                  !- Thickness {m}

  Construction,
    WALL-1,                  !- Name
    ST01,                    !- Outside Layer
    IN-W,                    !- Layer 2
    AL21,                    !- Layer 3
    GP02;                    !- Layer 4

  Construction,
    ROOF-1,                  !- Name
    BR01,                    !- Outside Layer
    CC24,                    !- Layer 2
    IN-R,                    !- Layer 3
    AL33,                    !- Layer 4
    AC02;                    !- Layer 5

  Construction,
    FLOOR-1,                 !- Name
    CC24,                    !- Outside Layer
    CP01;                    !- Layer 2

  Construction,
    CEILING-1,               !- Name
    CP01,                    !- Outside Layer
    CC24;                    !- Layer 2

  Construction,
    SLAB-1,                  !- Name
    SOIL,                    !- Outside Layer
    CC15;                    !- Layer 2

  Construction,
    INTWALL-1,               !- Name
    GP02,                    !- Outside Layer
    AL21,                    !- Layer 2
    GP02;                    !- Layer 3

  Construction,
    Medium Furniture,        !- Name
    MediumFurniture;         !- Outside Layer

  Construction,
    COMPOSITE,               !- Name
    CLEAR 6MM,               !- Outside Layer
    AIR 6MM,                 !- Layer 2
    CLEAR 6MM;               !- Layer 3

  Zone,
    PER-1T,                  !- Name
    0,                       !- Direction of Relative North {deg}
    0,                       !- X Origin {m}
    0,                       !- Y Origin {m}
    15.240,                  !- Z Origin {m}
    1,                       !- Type
    1,                       !- Multiplier
    3.048,                   !- Ceiling Height {m}
    573.4156;                !- Volume {m3}

  Zone,
    PER-2T,                  !- Name
    0,                       !- Direction of Relative North {deg}
    0,                       !- X Origin {m}
    0,                       !- Y Origin {m}
    15.240,                  !- Z Origin {m}
    1,                       !- Type
    1,                       !- Multiplier
    3.048,                   !- Ceiling Height {m}
    361.0395;                !- Volume {m3}

  Zone,
    PER-3T,                  !- Name
    0,                       !- Direction of Relative North {deg}
    0,                       !- X Origin {m}
    0,                       !- Y Origin {m}
    15.240,                  !- Z Origin {m}
    1,                       !- Type
    1,                       !- Multiplier
    3.048,                   !- Ceiling Height {m}
    573.4156;                !- Volume {m3}

  Zone,
    PER-4T,                  !- Name
    0,                       !- Direction of Relative North {deg}
    0,                       !- X Origin {m}
    0,                       !- Y Origin {m}
    15.240,                  !- Z Origin {m}
    1,                       !- Type
    1,                       !- Multiplier
    3.048,                   !- Ceiling Height {m}
    361.0395;                !- Volume {m3}

  Zone,
    COR-T,                   !- Name
    0,                       !- Direction of Relative North {deg}
    0,                       !- X Origin {m}
    0,                       !- Y Origin {m}
    15.240,                  !- Z Origin {m}
    1,                       !- Type
    1,                       !- Multiplier
    3.048,                   !- Ceiling Height {m}
    2378.6129;               !- Volume {m3}

  Zone,
    PER-1F,                  !- Name
    0,                       !- Direction of Relative North {deg}
    0,                       !- X Origin {m}
    0,                       !- Y Origin {m}
    0,                       !- Z Origin {m}
    1,                       !- Type
    1,                       !- Multiplier
    3.048,                   !- Ceiling Height {m}
    573.4156;                !- Volume {m3}

  Zone,
    PER-2F,                  !- Name
    0,                       !- Direction of Relative North {deg}
    0,                       !- X Origin {m}
    0,                       !- Y Origin {m}
    0,                       !- Z Origin {m}
    1,                       !- Type
    1,                       !- Multiplier
    3.048,                   !- Ceiling Height {m}
    361.0395;                !- Volume {m3}

  Zone,
    PER-3F,                  !- Name
    0,                       !- Direction of Relative North {deg}
    0,                       !- X Origin {m}
    0,                       !- Y Origin {m}
    0,                       !- Z Origin {m}
    1,                       !- Type
    1,                       !- Multiplier
    3.048,                   !- Ceiling Height {m}
    573.4156;                !- Volume {m3}

  Zone,
    PER-4F,                  !- Name
    0,                       !- Direction of Relative North {deg}
    0,                       !- X Origin {m}
    0,                       !- Y Origin {m}
    0,                       !- Z Origin {m}
    1,                       !- Type
    1,                       !- Multiplier
    3.048,                   !- Ceiling Height {m}
    361.0395;                !- Volume {m3}

  Zone,
    COR-F,                   !- Name
    0,                       !- Direction of Relative North {deg}
    0,                       !- X Origin {m}
    0,                       !- Y Origin {m}
    0,                       !- Z Origin {m}
    1,                       !- Type
    1,                       !- Multiplier
    3.048,                   !- Ceiling Height {m}
    2378.6129;               !- Volume {m3}

  Zone,
    PER-1I,                  !- Name
    0,                       !- Direction of Relative North {deg}
    0,                       !- X Origin {m}
    0,                       !- Y Origin {m}
    6.096,                   !- Z Origin {m}
    1,                       !- Type
    4,                       !- Multiplier
    3.048,                   !- Ceiling Height {m}
    573.4156;                !- Volume {m3}

  Zone,
    PER-2I,                  !- Name
    0,                       !- Direction of Relative North {deg}
    0,                       !- X Origin {m}
    0,                       !- Y Origin {m}
    6.096,                   !- Z Origin {m}
    1,                       !- Type
    4,                       !- Multiplier
    3.048,                   !- Ceiling Height {m}
    361.0395;                !- Volume {m3}

  Zone,
    PER-3I,                  !- Name
    0,                       !- Direction of Relative North {deg}
    0,                       !- X Origin {m}
    0,                       !- Y Origin {m}
    6.096,                   !- Z Origin {m}
    1,                       !- Type
    4,                       !- Multiplier
    3.048,                   !- Ceiling Height {m}
    573.4156;                !- Volume {m3}

  Zone,
    PER-4I,                  !- Name
    0,                       !- Direction of Relative North {deg}
    0,                       !- X Origin {m}
    0,                       !- Y Origin {m}
    6.096,                   !- Z Origin {m}
    1,                       !- Type
    4,                       !- Multiplier
    3.048,                   !- Ceiling Height {m}
    361.0395;                !- Volume {m3}

  Zone,
    COR-I,                   !- Name
    0,                       !- Direction of Relative North {deg}
    0,                       !- X Origin {m}
    0,                       !- Y Origin {m}
    6.096,                   !- Z Origin {m}
    1,                       !- Type
    4,                       !- Multiplier
    3.048,                   !- Ceiling Height {m}
    2378.6129;               !- Volume {m3}

  Zone,
    BASE-1,                  !- Name
    0,                       !- Direction of Relative North {deg}
    0,                       !- X Origin {m}
    0,                       !- Y Origin {m}
    -3.048,                  !- Z Origin {m}
    1,                       !- Type
    1,                       !- Multiplier
    3.048,                   !- Ceiling Height {m}
    4247.53;                 !- Volume {m3}

  GlobalGeometryRules,
    UpperLeftCorner,         !- Starting Vertex Position
    CounterClockWise,        !- Vertex Entry Direction
    Relative;                !- Coordinate System

  BuildingSurface:Detailed,
    EW1-P1T,                 !- Name
    WALL,                    !- Surface Type
    WALL-1,                  !- Construction Name
    PER-1T,                  !- Zone Name
    ,                        !- Space Name
    Outdoors,                !- Outside Boundary Condition
    ,                        !- Outside Boundary Condition Object
    SunExposed,              !- Sun Exposure
    WindExposed,             !- Wind Exposure
    0.50,                    !- View Factor to Ground
    4,                       !- Number of Vertices
    45.720,30.480,3.048,  !- X,Y,Z ==> Vertex 1 {m}
    45.720,30.480,0.000,  !- X,Y,Z ==> Vertex 2 {m}
    0.000,30.480,0.000,  !- X,Y,Z ==> Vertex 3 {m}
    0.000,30.480,3.048;  !- X,Y,Z ==> Vertex 4 {m}

  FenestrationSurface:Detailed,
    W1-P1T,                  !- Name
    WINDOW,                  !- Surface Type
    COMPOSITE,               !- Construction Name
    EW1-P1T,                 !- Building Surface Name
    ,                        !- Outside Boundary Condition Object
    0.50,                    !- View Factor to Ground
    ,                        !- Frame and Divider Name
    1.00,                    !- Multiplier
    4,                       !- Number of Vertices
    45.720,30.480,2.134,  !- X,Y,Z ==> Vertex 1 {m}
    45.720,30.480,0.610,  !- X,Y,Z ==> Vertex 2 {m}
    0.000,30.480,0.610,  !- X,Y,Z ==> Vertex 3 {m}
    0.000,30.480,2.134;  !- X,Y,Z ==> Vertex 4 {m}

  BuildingSurface:Detailed,
    RF-P1T,                  !- Name
    ROOF,                    !- Surface Type
    ROOF-1,                  !- Construction Name
    PER-1T,                  !- Zone Name
    ,                        !- Space Name
    Outdoors,                !- Outside Boundary Condition
    ,                        !- Outside Boundary Condition Object
    SunExposed,              !- Sun Exposure
    WindExposed,             !- Wind Exposure
    0.00,                    !- View Factor to Ground
    4,                       !- Number of Vertices
    41.148,25.908,3.048,  !- X,Y,Z ==> Vertex 1 {m}
    45.720,30.480,3.048,  !- X,Y,Z ==> Vertex 2 {m}
    0.000,30.480,3.048,  !- X,Y,Z ==> Vertex 3 {m}
    4.572,25.908,3.048;  !- X,Y,Z ==> Vertex 4 {m}

  BuildingSurface:Detailed,
    F-P1T,                   !- Name
    FLOOR,                   !- Surface Type
    FLOOR-1,                 !- Construction Name
    PER-1T,                  !- Zone Name
    ,                        !- Space Name
    Surface,                 !- Outside Boundary Condition
    F-P1T,                   !- Outside Boundary Condition Object
    NoSun,                   !- Sun Exposure
    NoWind,                  !- Wind Exposure
    0.00,                    !- View Factor to Ground
    4,                       !- Number of Vertices
    4.572,25.908,0.000,  !- X,Y,Z ==> Vertex 1 {m}
    0.000,30.480,0.000,  !- X,Y,Z ==> Vertex 2 {m}
    45.720,30.480,0.000,  !- X,Y,Z ==> Vertex 3 {m}
    41.148,25.908,0.000;  !- X,Y,Z ==> Vertex 4 {m}

  BuildingSurface:Detailed,
    IWR-P1T,                 !- Name
    WALL,                    !- Surface Type
    INTWALL-1,               !- Construction Name
    PER-1T,                  !- Zone Name
    ,                        !- Space Name
    Surface,                 !- Outside Boundary Condition
    IWL-P4T,                 !- Outside Boundary Condition Object
    NoSun,                   !- Sun Exposure
    NoWind,                  !- Wind Exposure
    0.00,                    !- View Factor to Ground
    4,                       !- Number of Vertices
    0.000,30.480,3.048,  !- X,Y,Z ==> Vertex 1 {m}
    0.000,30.480,0.000,  !- X,Y,Z ==> Vertex 2 {m}
    4.572,25.908,0.000,  !- X,Y,Z ==> Vertex 3 {m}
    4.572,25.908,3.048;  !- X,Y,Z ==> Vertex 4 {m}

  BuildingSurface:Detailed,
    IWB-P1T,                 !- Name
    WALL,                    !- Surface Type