!-Generator IDFEditor 1.34
!-Option OriginalOrderTop UseSpecialFormat
!-NOTE: All comments with '!-' are ignored by the IDFEditor and are generated automatically.
!-      Use '!' comments if they need to be retained when using the IDFEditor.
! MicroCogeneration.idf
! Basic file description:  1 story building divided into four exterior and one interior conditioned zones.
!
! Highlights:              Small food service building with cogeneration and multiple electric load centers
!
!                          A combustion MicroCHP follows thermal loads with electrical limiting.
!                          MicroCHP unit data from measurements conducted by IEA/ECBCS Annex 42 for
!                          a Senertech internal combustion engine production unit
!                          A solid oxide fuel cell (SOFC) operates as a baseload cogenerator.
!                          SOFC unit data from measurements by IEA/ECBCS Annex 42 for FCT prototype unit
!                          REFERENCE: "Experimental Investigation of Residential Cogeneration Devices and Calibration
!                                     of Annex 42 Models." A report of Subtask B of IEA/ECBCS Annex 42.  ISBN No. 978-0-662-47523-1.
!                                     available from http://cogen-sim.net/
!                          A fake, continuous wind turbine is modeled using a Combustion Turbine model with null fuel use curves.
!
! Simulation Location/Run: Newark NJ, USA  , 1 run period,
!
! Location:                Newark, NJ
!
! Design Days:             NEWARK_NJ_USA Annual Heating 99.6%, MaxDB=-12.1°C
!                          NEWARK_NJ_USA Annual Cooling (DB=>MWB) .4%, MaxDB=34.1°C MWB=23.8°C
!
! Run Period (Weather File): Winter 1/7 to 1/11 (Newark NJ TMY2-based    )
!
! Run Control:             Zone and System sizing with weather file run control (no design days run)
!
! Building: Small, intensive fast food service.  single floor rectangular building 5 zones - 4 exterior, 1 interior.
!           Generated as an existing stock model from CBECS survey building ID 2859 but with PTACs and central hyrdonic heat for cogen study.
!           There are windows on all 4 facades. The window to wall ratio averages .236 .
!
!
! Floor Area:       102.19 m2
! Number of Stories: 1
!
! Zone Description Details:
!
!
! Internal gains description:     lighting is 17.5 watts/m2, food service equip is 69.2 watts/m2.  Occupancy is 2.43 m2/person
!                                 per 100 ft2 of floor area. The infiltration is 0.65 air changes per hour.
!
! Interzone Surfaces:             6 interzone surfaces
! Internal Mass:                  Yes
! People:                         50
! Lights:                         Yes
! Windows:                        Banded
!
! Detached Shading:               None
! Daylight:                       None
! Natural Ventilation:            None
! Compact Schedules:              Yes
!
! HVAC:                           PTACs with hot water reheat coils.  Hydronic hot water plant configured for cogeneration.
!
!
! Zonal Equipment:                PTAC
! Central Air Handling Equipment: No
! System Equipment Autosize:      Yes
! Purchased Cooling:              None
! Purchased Heating:              None
! Coils:                          DX, COIL:WATER:SIMPLEHEATING
! Pumps:                          PUMP:CONSTANT SPEED
! Boilers:                        None
! Chillers:                       None
!
! Results:
! Standard Reports:               Yes
! Timestep or Hourly Variables:   Hourly
! Time bins Report:               None
! HTML Report:                    Yes
! Environmental Emissions:        None
! Utility Tariffs:                Yes

  Version,24.1;

  Timestep,6;

  SimulationControl,
    Yes,                     !- Do Zone Sizing Calculation
    Yes,                     !- Do System Sizing Calculation
    Yes,                     !- Do Plant Sizing Calculation
    Yes,                     !- Run Simulation for Sizing Periods
    No,                      !- Run Simulation for Weather File Run Periods
    No,                      !- Do HVAC Sizing Simulation for Sizing Periods
    1;                       !- Maximum Number of HVAC Sizing Simulation Passes

  SurfaceConvectionAlgorithm:Inside,TARP;

  SurfaceConvectionAlgorithm:Outside,DOE-2;

  HeatBalanceAlgorithm,ConductionTransferFunction;

  Sizing:Parameters,
    1.2000,                  !- Heating Sizing Factor
    1.2000,                  !- Cooling Sizing Factor
    ;                        !- Timesteps in Averaging Window

  ConvergenceLimits,
    1,                       !- Minimum System Timestep {minutes}
    25,                      !- Maximum HVAC Iterations
    3,                       !- Minimum Plant Iterations
    10;                      !- Maximum Plant Iterations

  ShadowCalculation,
    PolygonClipping,         !- Shading Calculation Method
    Periodic,                !- Shading Calculation Update Frequency Method
    30;                      !- Shading Calculation Update Frequency

  GlobalGeometryRules,
    UpperLeftCorner,         !- Starting Vertex Position
    CounterClockWise,        !- Vertex Entry Direction
    Relative;                !- Coordinate System

  Building,
    All,                     !- Name
    158.4340,                !- North Axis {deg}
    City,                    !- Terrain
    0.0400,                  !- Loads Convergence Tolerance Value {W}
    0.2000,                  !- Temperature Convergence Tolerance Value {deltaC}
    FullInteriorAndExterior, !- Solar Distribution
    25,                      !- Maximum Number of Warmup Days
    6;                       !- Minimum Number of Warmup Days

! US National Holidays

  RunPeriodControl:SpecialDays,
    New Years Day,           !- Name
    January 1,               !- Start Date
    1,                       !- Duration {days}
    Holiday;                 !- Special Day Type

  RunPeriodControl:SpecialDays,
    Veterans Day,            !- Name
    November 11,             !- Start Date
    1,                       !- Duration {days}
    Holiday;                 !- Special Day Type

  RunPeriodControl:SpecialDays,
    Christmas,               !- Name
    December 25,             !- Start Date
    1,                       !- Duration {days}
    Holiday;                 !- Special Day Type

  RunPeriodControl:SpecialDays,
    Independence Day,        !- Name
    July 4,                  !- Start Date
    1,                       !- Duration {days}
    Holiday;                 !- Special Day Type

  RunPeriodControl:SpecialDays,
    MLK Day,                 !- Name
    3rd Monday in January,   !- Start Date
    1,                       !- Duration {days}
    Holiday;                 !- Special Day Type

  RunPeriodControl:SpecialDays,
    Presidents Day,          !- Name
    3rd Monday in February,  !- Start Date
    1,                       !- Duration {days}
    Holiday;                 !- Special Day Type

  RunPeriodControl:SpecialDays,
    Memorial Day,            !- Name
    Last Monday in May,      !- Start Date
    1,                       !- Duration {days}
    Holiday;                 !- Special Day Type

  RunPeriodControl:SpecialDays,
    Labor Day,               !- Name
    1st Monday in September, !- Start Date
    1,                       !- Duration {days}
    Holiday;                 !- Special Day Type

  RunPeriodControl:SpecialDays,
    Columbus Day,            !- Name
    2nd Monday in October,   !- Start Date
    1,                       !- Duration {days}
    Holiday;                 !- Special Day Type

  RunPeriodControl:SpecialDays,
    Thanksgiving,            !- Name
    4th Thursday in November,!- Start Date
    1,                       !- Duration {days}
    Holiday;                 !- Special Day Type

! Daylight Saving Period in US

  RunPeriodControl:DaylightSavingTime,
    1st Sunday in April,     !- Start Date
    Last Sunday in October;  !- End Date

  Site:Location,
    NEWARK_NJ_USA TMY2-14734,!- Name
    40.70000,                !- Latitude {deg}
    -74.17000,               !- Longitude {deg}
    -5.000000,               !- Time Zone {hr}
    9.000000;                !- Elevation {m}

! NEWARK_NJ_USA Annual Heating 99.6%, MaxDB=-12.1°C

  SizingPeriod:DesignDay,
    NEWARK Ann Htg 99.6% Condns DB,  !- Name
    1,                       !- Month
    21,                      !- Day of Month
    WinterDesignDay,         !- Day Type
    -12.1,                   !- Maximum Dry-Bulb Temperature {C}
    0.0,                     !- Daily Dry-Bulb Temperature Range {deltaC}
    ,                        !- Dry-Bulb Temperature Range Modifier Type
    ,                        !- Dry-Bulb Temperature Range Modifier Day Schedule Name
    Wetbulb,                 !- Humidity Condition Type
    -12.1,                   !- Wetbulb or DewPoint at Maximum Dry-Bulb {C}
    ,                        !- Humidity Condition Day Schedule Name
    ,                        !- Humidity Ratio at Maximum Dry-Bulb {kgWater/kgDryAir}
    ,                        !- Enthalpy at Maximum Dry-Bulb {J/kg}
    ,                        !- Daily Wet-Bulb Temperature Range {deltaC}
    101217.,                 !- Barometric Pressure {Pa}
    6.1,                     !- Wind Speed {m/s}
    280,                     !- Wind Direction {deg}
    No,                      !- Rain Indicator
    No,                      !- Snow Indicator
    No,                      !- Daylight Saving Time Indicator
    ASHRAEClearSky,          !- Solar Model Indicator
    ,                        !- Beam Solar Day Schedule Name
    ,                        !- Diffuse Solar Day Schedule Name
    ,                        !- ASHRAE Clear Sky Optical Depth for Beam Irradiance (taub) {dimensionless}
    ,                        !- ASHRAE Clear Sky Optical Depth for Diffuse Irradiance (taud) {dimensionless}
    0.00;                    !- Sky Clearness

! NEWARK_NJ_USA Annual Cooling (DB=>MWB) .4%, MaxDB=34.1°C MWB=23.8°C

  SizingPeriod:DesignDay,
    NEWARK Ann Clg .4% Condns DB=>MWB,  !- Name
    7,                       !- Month
    21,                      !- Day of Month
    SummerDesignDay,         !- Day Type
    34.1,                    !- Maximum Dry-Bulb Temperature {C}
    8.9,                     !- Daily Dry-Bulb Temperature Range {deltaC}
    ,                        !- Dry-Bulb Temperature Range Modifier Type
    ,                        !- Dry-Bulb Temperature Range Modifier Day Schedule Name
    Wetbulb,                 !- Humidity Condition Type
    23.8,                    !- Wetbulb or DewPoint at Maximum Dry-Bulb {C}
    ,                        !- Humidity Condition Day Schedule Name
    ,                        !- Humidity Ratio at Maximum Dry-Bulb {kgWater/kgDryAir}
    ,                        !- Enthalpy at Maximum Dry-Bulb {J/kg}
    ,                        !- Daily Wet-Bulb Temperature Range {deltaC}
    101217.,                 !- Barometric Pressure {Pa}
    5.7,                     !- Wind Speed {m/s}
    250,                     !- Wind Direction {deg}
    No,                      !- Rain Indicator
    No,                      !- Snow Indicator
    No,                      !- Daylight Saving Time Indicator
    ASHRAEClearSky,          !- Solar Model Indicator
    ,                        !- Beam Solar Day Schedule Name
    ,                        !- Diffuse Solar Day Schedule Name
    ,                        !- ASHRAE Clear Sky Optical Depth for Beam Irradiance (taub) {dimensionless}
    ,                        !- ASHRAE Clear Sky Optical Depth for Diffuse Irradiance (taud) {dimensionless}
    1.00;                    !- Sky Clearness

  Site:GroundTemperature:BuildingSurface,20.00,19.99,20.02,20.05,20.09,20.16,20.19,20.22,20.23,20.22,20.19,20.15;

! Daily Avg, -1.4, 0.7, 5.1, 9.9, 17.1, 21.5, 24.1, 24.4, 19.8, 14.5, 7.4, 1.9

  RunPeriod,
    Run Period 1,            !- Name
    1,                       !- Begin Month
    1,                       !- Begin Day of Month
    ,                        !- Begin Year
    12,                      !- End Month
    31,                      !- End Day of Month
    ,                        !- End Year
    Sunday,                  !- Day of Week for Start Day
    No,                      !- Use Weather File Holidays and Special Days
    No,                      !- Use Weather File Daylight Saving Period
    No,                      !- Apply Weekend Holiday Rule
    Yes,                     !- Use Weather File Rain Indicators
    Yes;                     !- Use Weather File Snow Indicators

  Site:WaterMainsTemperature,
    CORRELATION,             !- Calculation Method
    ,                        !- Temperature Schedule Name
    12.08,                   !- Annual Average Outdoor Air Temperature {C}
    25.80;                   !- Maximum Difference In Monthly Average Outdoor Air Temperatures {deltaC}

  ScheduleTypeLimits,
    Any Number;              !- Name

  ScheduleTypeLimits,
    Fraction,                !- Name
    0.0,                     !- Lower Limit Value
    1.0,                     !- Upper Limit Value
    CONTINUOUS;              !- Numeric Type

  ScheduleTypeLimits,
    Temperature,             !- Name
    -60,                     !- Lower Limit Value
    200,                     !- Upper Limit Value
    CONTINUOUS,              !- Numeric Type
    Temperature;             !- Unit Type

  ScheduleTypeLimits,
    On/Off,                  !- Name
    0,                       !- Lower Limit Value
    1,                       !- Upper Limit Value
    DISCRETE;                !- Numeric Type

  ScheduleTypeLimits,
    Control Type,            !- Name
    0,                       !- Lower Limit Value
    4,                       !- Upper Limit Value
    DISCRETE;                !- Numeric Type

  ScheduleTypeLimits,
    Humidity,                !- Name
    10,                      !- Lower Limit Value
    90,                      !- Upper Limit Value
    CONTINUOUS;              !- Numeric Type

  ScheduleTypeLimits,
    Number;                  !- Name

!  PBA:  15: Food service
!  PBA+: 34: Other food service
!  Weekly Hours: 168
!  Open 24 Hours: True
!  Open Weekends: True
!  Days Open: Open Mon-Fri
!  Months Not Open: 0
!  Month Occupied (not always used): 0
!  Schedule valid for the following building IDs
!  ID_2859

  Schedule:Compact,
    ALWAYS_ON,               !- Name
    On/Off,                  !- Schedule Type Limits Name
    Through: 12/31,          !- Field 1
    For: AllDays,            !- Field 2
    Until: 24:00,1;          !- Field 3

  Schedule:Compact,
    ALWAYS_OFF,              !- Name
    On/Off,                  !- Schedule Type Limits Name
    Through: 12/31,          !- Field 1
    For: AllDays,            !- Field 2
    Until: 24:00,0;          !- Field 3

  Schedule:Compact,
    WORK_EFF_SCH,            !- Name
    Fraction,                !- Schedule Type Limits Name
    Through: 12/31,          !- Field 1
    For: AllDays,            !- Field 2
    Until: 24:00,0;          !- Field 3

  Schedule:Compact,
    AIR_VELO_SCH,            !- Name
    Any Number,              !- Schedule Type Limits Name
    Through: 12/31,          !- Field 1
    For: AllDays,            !- Field 2
    Until: 24:00,0.2;        !- Field 3

  Schedule:Compact,
    CLOTHING_SCH,            !- Name
    Any Number,              !- Schedule Type Limits Name
    Through: 04/30,          !- Field 1
    For: AllDays,            !- Field 2
    Until: 24:00,1.1,        !- Field 3
    Through: 09/30,          !- Field 5
    For: AllDays,            !- Field 6
    Until: 24:00,0.6,        !- Field 7
    Through: 12/31,          !- Field 9
    For: AllDays,            !- Field 10
    Until: 24:00,1.1;        !- Field 11

  Schedule:Compact,
    PlantOnSched,            !- Name
    On/Off,                  !- Schedule Type Limits Name
    Through: 12/31,          !- Field 1
    For: AllDays,            !- Field 2
    Until: 24:00,1;          !- Field 3

  Schedule:Compact,
    Dual Zone Control Type Sched,  !- Name
    Control Type,            !- Schedule Type Limits Name
    Through: 12/31,          !- Field 1
    For: AllDays,            !- Field 2
    Until: 24:00,4;          !- Field 3

!  Schedule for hours of operation
!  Assigned 168 hours

  Schedule:Compact,
    Hours_of_operation,      !- Name
    On/Off,                  !- Schedule Type Limits Name
    Through: 12/31,          !- Field 1
    For: AllDays,            !- Field 2
    Until: 24:00,1;          !- Field 3

!  Heating Setpoint

  Schedule:Compact,
    HTGSETP_SCH,             !- Name
    Temperature,             !- Schedule Type Limits Name
    Through: 12/31,          !- Field 1
    For: SummerDesignDay,    !- Field 2
    Until: 24:00,13,         !- Field 3
    For: WinterDesignDay,    !- Field 5
    Until: 24:00,21,         !- Field 6
    For: Weekdays WeekEnds Holidays AllOtherDays, !- Field 8
    Until: 24:00,21;         !- Field 9

!  Cooling Setpoint

  Schedule:Compact,
    CLGSETP_SCH,             !- Name
    Temperature,             !- Schedule Type Limits Name
    Through: 12/31,          !- Field 1
    For: SummerDesignDay,    !- Field 2
    Until: 24:00,24,         !- Field 3
    For: WinterDesignDay,    !- Field 5
    Until: 24:00,33,         !- Field 6
    For: Weekdays WeekEnds Holidays AllOtherDays, !- Field 8
    Until: 24:00,24;         !- Field 9

!  Lighting schedule
!  Lighting Reduced: False
!  Percent Lit When Closed: 0
!  Percent Lit When Open: 100

  Schedule:Compact,
    BLDG_LIGHT_SCH,          !- Name
    Fraction,                !- Schedule Type Limits Name
    Through: 12/31,          !- Field 1
    For: AllDays,            !- Field 2
    Until: 24:00,1;          !- Field 3

!  Equipment Schedule
!  Minimum Equipment Percent: 10
!  Maximum Equipment Percent: 95
!  Equipment turned off during off hours: Always

  Schedule:Compact,
    BLDG_EQUIP_SCH,          !- Name
    Fraction,                !- Schedule Type Limits Name
    Through: 12/31,          !- Field 1
    For: AllDays,            !- Field 2
    Until: 24:00,0.95;       !- Field 3

!  Occupancy Schedule
!  Minimum Occupancy Percent: 0
!  Maximum Occupancy Percent: 95

  Schedule:Compact,
    BLDG_OCC_SCH,            !- Name
    Fraction,                !- Schedule Type Limits Name
    Through: 12/31,          !- Field 1
    For: AllDays,            !- Field 2
    Until: 12:00,0.95,       !- Field 3
    Until: 13:00,0.5,        !- Field 5
    Until: 24:00,0.95;       !- Field 7

!  Infiltration Schedule
!  Infiltration Percent w/o HVAC: 100
!  Infiltration Percent w/HVAC: 100

  Schedule:Compact,
    INFIL_SCH,               !- Name
    Fraction,                !- Schedule Type Limits Name
    Through: 12/31,          !- Field 1
    For: AllDays,            !- Field 2
    Until: 24:00,1;          !- Field 3

!  Activity Schedule

  Schedule:Compact,
    ACTIVITY_SCH,            !- Name
    Any Number,              !- Schedule Type Limits Name
    Through: 12/31,          !- Field 1
    For: AllDays,            !- Field 2
    Until: 24:00,120;        !- Field 3

  WindowMaterial:Glazing,
    Grey 6MM,                !- Name
    SpectralAverage,         !- Optical Data Type
    ,                        !- Window Glass Spectral Data Set Name
    0.0060,                  !- Thickness {m}
    0.4550,                  !- Solar Transmittance at Normal Incidence
    0.0530,                  !- Front Side Solar Reflectance at Normal Incidence
    0.0530,                  !- Back Side Solar Reflectance at Normal Incidence
    0.4310,                  !- Visible Transmittance at Normal Incidence
    0.0520,                  !- Front Side Visible Reflectance at Normal Incidence
    0.0520,                  !- Back Side Visible Reflectance at Normal Incidence
    0.0000,                  !- Infrared Transmittance at Normal Incidence
    0.8400,                  !- Front Side Infrared Hemispherical Emissivity
    0.8400,                  !- Back Side Infrared Hemispherical Emissivity
    0.9000;                  !- Conductivity {W/m-K}

  WindowMaterial:Glazing,
    Theoretical Glass [88],  !- Name
    SpectralAverage,         !- Optical Data Type
    ,                        !- Window Glass Spectral Data Set Name
    0.0030,                  !- Thickness {m}
    0.4820,                  !- Solar Transmittance at Normal Incidence
    0.4680,                  !- Front Side Solar Reflectance at Normal Incidence
    0.4680,                  !- Back Side Solar Reflectance at Normal Incidence
    0.6206,                  !- Visible Transmittance at Normal Incidence
    0.3294,                  !- Front Side Visible Reflectance at Normal Incidence
    0.3294,                  !- Back Side Visible Reflectance at Normal Incidence
    0.0000,                  !- Infrared Transmittance at Normal Incidence
    0.9300,                  !- Front Side Infrared Hemispherical Emissivity
    0.9300,                  !- Back Side Infrared Hemispherical Emissivity
    0.0297;                  !- Conductivity {W/m-K}

  Material,
    Roof Membrane [1],       !- Name
    Rough,                   !- Roughness
    0.0095,                  !- Thickness {m}
    0.1900,                  !- Conductivity {W/m-K}
    1121.2900,               !- Density {kg/m3}
    1670.0000,               !- Specific Heat {J/kg-K}
    0.9000,                  !- Thermal Absorptance
    0.7500,                  !- Solar Absorptance
    0.7500;                  !- Visible Absorptance

  Material,
    Roof Insulation [84],    !- Name
    MediumRough,             !- Roughness
    0.1022,                  !- Thickness {m}
    0.0490,                  !- Conductivity {W/m-K}
    265.0000,                !- Density {kg/m3}
    836.8000,                !- Specific Heat {J/kg-K}
    0.9000,                  !- Thermal Absorptance
    0.7000,                  !- Solar Absorptance
    0.7000;                  !- Visible Absorptance

  Material,
    Metal Decking,           !- Name
    MediumSmooth,            !- Roughness
    0.0015,                  !- Thickness {m}
    45.0060,                 !- Conductivity {W/m-K}
    7680.0000,               !- Density {kg/m3}
    418.4000,                !- Specific Heat {J/kg-K}
    0.9000,                  !- Thermal Absorptance
    0.7000,                  !- Solar Absorptance
    0.3000;                  !- Visible Absorptance

  Material,
    GP01 1/2 GYPSUM,         !- Name
    Smooth,                  !- Roughness
    0.0127,                  !- Thickness {m}
    0.1600,                  !- Conductivity {W/m-K}
    800.0000,                !- Density {kg/m3}
    1090.0000,               !- Specific Heat {J/kg-K}
    0.9000,                  !- Thermal Absorptance
    0.7000,                  !- Solar Absorptance
    0.5000;                  !- Visible Absorptance

  Material,
    1IN Stucco,              !- Name
    Smooth,                  !- Roughness
    0.0253,                  !- Thickness {m}
    0.6918,                  !- Conductivity {W/m-K}
    1858.0000,               !- Density {kg/m3}
    837.0000,                !- Specific Heat {J/kg-K}
    0.9000,                  !- Thermal Absorptance
    0.9200,                  !- Solar Absorptance
    0.9200;                  !- Visible Absorptance

  Material,
    8IN Concrete HW,         !- Name
    MediumRough,             !- Roughness
    0.2033,                  !- Thickness {m}
    1.7296,                  !- Conductivity {W/m-K}
    2243.0000,               !- Density {kg/m3}
    837.0000,                !- Specific Heat {J/kg-K}
    0.9000,                  !- Thermal Absorptance
    0.6500,                  !- Solar Absorptance
    0.6500;                  !- Visible Absorptance

  Material,
    Wall Insulation [160],   !- Name
    MediumRough,             !- Roughness
    0.0208,                  !- Thickness {m}
    0.0432,                  !- Conductivity {W/m-K}
    91.0000,                 !- Density {kg/m3}
    837.0000,                !- Specific Heat {J/kg-K}
    0.9000,                  !- Thermal Absorptance
    0.5000,                  !- Solar Absorptance
    0.5000;                  !- Visible Absorptance

  Material,
    1/2IN Gypsum,            !- Name
    Smooth,                  !- Roughness
    0.0127,                  !- Thickness {m}
    0.1600,                  !- Conductivity {W/m-K}
    784.9000,                !- Density {kg/m3}
    830.0000,                !- Specific Heat {J/kg-K}
    0.9000,                  !- Thermal Absorptance
    0.9200,                  !- Solar Absorptance
    0.9200;                  !- Visible Absorptance

  Material,
    MAT-CC05 8 HW CONCRETE,  !- Name
    Rough,                   !- Roughness
    0.2032,                  !- Thickness {m}
    1.3110,                  !- Conductivity {W/m-K}
    2240.0000,               !- Density {kg/m3}
    836.8000,                !- Specific Heat {J/kg-K}
    0.9000,                  !- Thermal Absorptance
    0.7000,                  !- Solar Absorptance
    0.7000;                  !- Visible Absorptance

  Material:NoMass,
    CP02 CARPET PAD,         !- Name
    VeryRough,               !- Roughness
    0.2165,                  !- Thermal Resistance {m2-K/W}
    0.9000,                  !- Thermal Absorptance
    0.7000,                  !- Solar Absorptance
    0.8000;                  !- Visible Absorptance

  Material,
    Std Wood 6inch,          !- Name
    MediumSmooth,            !- Roughness
    0.15,                    !- Thickness {m}
    0.12,                    !- Conductivity {W/m-K}
    540.0000,                !- Density {kg/m3}
    1210,                    !- Specific Heat {J/kg-K}
    0.9000000,               !- Thermal Absorptance
    0.7000000,               !- Solar Absorptance
    0.7000000;               !- Visible Absorptance

  Material,
    Std 1.5  MW CONCRETE,    !- Name
    Rough,                   !- Roughness
    0.038,                   !- Thickness {m}
    0.858,                   !- Conductivity {W/m-K}
    1968,                    !- Density {kg/m3}
    836.8,                   !- Specific Heat {J/kg-K}
    0.9,                     !- Thermal Absorptance
    0.7,                     !- Solar Absorptance
    0.7;                     !- Visible Absorptance

  Material,
    Std AC02,                !- Name
    MediumSmooth,            !- Roughness
    1.2700000E-02,           !- Thickness {m}
    5.7000000E-02,           !- Conductivity {W/m-K}
    288.0000,                !- Density {kg/m3}
    1339.000,                !- Specific Heat {J/kg-K}
    0.9000000,               !- Thermal Absorptance
    0.7000000,               !- Solar Absorptance
    0.2000000;               !- Visible Absorptance

  Material:NoMass,
    Std CP02 CARPET PAD,     !- Name
    VeryRough,               !- Roughness
    0.21648,                 !- Thermal Resistance {m2-K/W}
    0.9,                     !- Thermal Absorptance
    0.7,                     !- Solar Absorptance
    0.8;                     !- Visible Absorptance

  Material,
    Std MAT-CC05 4  MW CONCRETE,  !- Name
    Rough,                   !- Roughness
    0.1000,                  !- Thickness {m}
    0.858,                   !- Conductivity {W/m-K}
    1968,                    !- Density {kg/m3}
    836.8,                   !- Specific Heat {J/kg-K}
    0.9,                     !- Thermal Absorptance
    0.7,                     !- Solar Absorptance
    0.2;                     !- Visible Absorptance

  Material,
    Std Very High Reflectivity Surface,  !- Name
    Smooth,                  !- Roughness
    0.0005,                  !- Thickness {m}
    237,                     !- Conductivity {W/m-K}
    2702,                    !- Density {kg/m3}
    903,                     !- Specific Heat {J/kg-K}
    0.90,                    !- Thermal Absorptance
    0.05,                    !- Solar Absorptance
    0.05;                    !- Visible Absorptance

  WindowMaterial:Glazing,
    Std Clear Acrylic Plastic,  !- Name
    SpectralAverage,         !- Optical Data Type
    ,                        !- Window Glass Spectral Data Set Name
    0.003,                   !- Thickness {m}
    0.92,                    !- Solar Transmittance at Normal Incidence
    0.05,                    !- Front Side Solar Reflectance at Normal Incidence
    0.05,                    !- Back Side Solar Reflectance at Normal Incidence
    0.92,                    !- Visible Transmittance at Normal Incidence
    0.05,                    !- Front Side Visible Reflectance at Normal Incidence
    0.05,                    !- Back Side Visible Reflectance at Normal Incidence
    0.00,                    !- Infrared Transmittance at Normal Incidence
    0.90,                    !- Front Side Infrared Hemispherical Emissivity
    0.90,                    !- Back Side Infrared Hemispherical Emissivity
    0.90;                    !- Conductivity {W/m-K}

  WindowMaterial:Glazing,
    Std Diffusing Acrylic Plastic,  !- Name
    SpectralAverage,         !- Optical Data Type
    ,                        !- Window Glass Spectral Data Set Name
    0.0022,                  !- Thickness {m}
    0.90,                    !- Solar Transmittance at Normal Incidence
    0.08,                    !- Front Side Solar Reflectance at Normal Incidence
    0.08,                    !- Back Side Solar Reflectance at Normal Incidence
    0.90,                    !- Visible Transmittance at Normal Incidence
    0.08,                    !- Front Side Visible Reflectance at Normal Incidence
    0.08,                    !- Back Side Visible Reflectance at Normal Incidence
    0.00,                    !- Infrared Transmittance at Normal Incidence
    0.90,                    !- Front Side Infrared Hemispherical Emissivity
    0.90,                    !- Back Side Infrared Hemispherical Emissivity