!-Generator IDFEditor 1.34
!-Option OriginalOrderTop UseSpecialFormat
!-NOTE: All comments with '!-' are ignored by the IDFEditor and are generated automatically.
!-      Use '!' comments if they need to be retained when using the IDFEditor.
! Mundt_System_On_During_the_Day.idf
! Basic file description: Basic test for Mundt nodal air model
!                          1 story building divided into 3 interior conditioned zones. Roof with no plenum.
!                          No ground contact with floor.
!
! Highlights:              Example of Mundt Mixing Air Model
!
! Simulation Location/Run: TAMPA_INTL_AIRPORT_FL_USA, 2 design days, 2 run periods,
!                          Run Control executes two design days (see RUN PERIOD object)
!
! Location:                Tampa, FL
!
! Design Days:             TAMPA_INTL_AIRPORT_FL_USA Annual Heating 99% Design Conditions DB, MaxDB= -17.3°C
!                          TAMPA_INTL_AIRPORT_FL_USA Annual Cooling 1% Design Conditions, MaxDB=  31.5°C MCWB=  23.0°C
!
! Run Period (Weather File): 6/15 to 7/15, TAMPA_INTL_AIRPORT_FL_USA
!
! Run Control:             No zone or system sizing, design day run control (no weather file simulation)
! Run:      2-design-day and a 1-month simulation.
! Building: A simple 3 room, 4 zone building was devised to illustrate use of the Mundt room air model. The 'Mid' room is divided
!           into an upper and lower zone.  'Mixing' models are used for these two zones.  The West and East room are modeled as
!           single zones with multiple surfaces on each wall.  The zones are 12 m tall to illustrate the effect of thermal
!           stratification in the rooms.
!
! Floor Area:        48 m2
! Number of Stories: 1
! Zone Description Details:
!
!       (0,4m,0)
!           _______________________________________ ___________________
!          |                   |                   |                   |
!          |                   |                   |                   |
!          |                   |                   |                   |
!          |                   |                   |                   |
!          |     West          |     Mid           |      East         |     window = *
!          |                   |                   |                   |
!          |                   |                   |                   |
!          |                   |                   |                   |
!          |___*************___|___________________|___*************___|
!
!      (0,0,0)             (4m,0,0)               (8m,0,0)            (12m,0,0)
! Internal gains description:     ZONE West          - lighting is 0 watts,        equip is 2928.751 watts, 5 occupants
! Internal gains description:     ZONE Mid-Upper     - lighting is 878.6252 watts, equip is 2928.751 watts, 3 occupants
! Internal gains description:     ZONE Mid-Lower     - lighting is 878.6252 watts, equip is 2928.751 watts, 3 occupants
! Internal gains description:     ZONE East          - lighting is 0 watts,        equip is 1464.375 watts, 5 occupants
!
! Interzone Surfaces:             Interzone partions are specified between the Mid zones and the East and West zones
!                                 A total of 8 interzone surfaces are specified.
! Internal Mass:                  None
! People:                         16
! Lights:                         1,756 W
! Equipment:                      10,251 W
! Windows:                        2
! Detached Shading:               None
! Daylight:                       None
! Natural Ventilation:            None
! Compact Schedules:              Yes
! Solar Distribution:             Minimal Shadowing
!
! HVAC:     Standard VAV system with outside air economizer, hot water reheat
!           coils, central chilled water cooling coil. Central Plant is single
!           hot water boiler, electric compression chiller with air cooled
!           condenser. All equipment is autosized.
!
! Zonal Equipment:                Air Distribution Unit (diffusers)
! Central Air Handling Equipment: Yes
! System Equipment Autosize:      Yes
! Purchased Cooling:              No
! Purchased Heating:              No
! Purchased Chilled Water:        No
! Purchased Hot Water:            No
! Coils:                           Coil:Cooling:Water; Coil:Heating:Water
! Pumps:                          Yes
! Boilers:                        Yes
! Chillers:                       Yes
! Towers:                         No
!
! Results:
! Standard Reports:               DXF
! Timestep or Hourly Variables:   hourly
! Time bins Report:               None
! HTML Report:                    None
! Environmental Emissions:        None
! Utility Tariffs:                None

  Version,24.1;

  Building,
    FICTITIOUS BLDG,         !- Name
    0,                       !- North Axis {deg}
    Suburbs,                 !- Terrain
    3.9999999E-02,           !- Loads Convergence Tolerance Value {W}
    0.4000000,               !- Temperature Convergence Tolerance Value {deltaC}
    MinimalShadowing,        !- Solar Distribution
    25,                      !- Maximum Number of Warmup Days
    6;                       !- Minimum Number of Warmup Days

  Timestep,6;

  SurfaceConvectionAlgorithm:Inside,TARP;

  SurfaceConvectionAlgorithm:Outside,DOE-2;

  HeatBalanceAlgorithm,ConductionTransferFunction;

  SimulationControl,
    Yes,                     !- Do Zone Sizing Calculation
    Yes,                     !- Do System Sizing Calculation
    Yes,                     !- Do Plant Sizing Calculation
    No,                      !- Run Simulation for Sizing Periods
    Yes,                     !- Run Simulation for Weather File Run Periods
    No,                      !- Do HVAC Sizing Simulation for Sizing Periods
    1;                       !- Maximum Number of HVAC Sizing Simulation Passes

  RunPeriod,
    Run Period 1,            !- Name
    6,                       !- Begin Month
    15,                      !- Begin Day of Month
    ,                        !- Begin Year
    7,                       !- End Month
    15,                      !- End Day of Month
    ,                        !- End Year
    Tuesday,                 !- Day of Week for Start Day
    Yes,                     !- Use Weather File Holidays and Special Days
    Yes,                     !- Use Weather File Daylight Saving Period
    No,                      !- Apply Weekend Holiday Rule
    Yes,                     !- Use Weather File Rain Indicators
    Yes;                     !- Use Weather File Snow Indicators

  Site:Location,
    TAMPA_INTL_AIRPORT_FL_USA Design_Conditions,  !- Name
    27.97,                   !- Latitude {deg}
    -82.53,                  !- Longitude {deg}
    -5.00,                   !- Time Zone {hr}
    3.00;                    !- Elevation {m}

! Using Design Conditions from "United States Climate Design Data 2001 ASHRAE Handbook"
! TAMPA_INTL_AIRPORT_FL_USA Extreme Wind Speeds, 1%=   8.40m/s, 2.5%=   7.50m/s, 5%=   6.80m/s
! TAMPA_INTL_AIRPORT_FL_USA Extreme Temperatures, Max Drybulb=  34.90°C, Min Drybulb=  -1.80°C
! TAMPA_INTL_AIRPORT_FL_USA Heating Design Conditions Wind Speed=   3.50 Wind Dir=  20.00
! TAMPA_INTL_AIRPORT_FL_USA Heating 99.6%, MaxDB=   2.20

  SizingPeriod:DesignDay,
    TAMPA_INTL_AIRPORT_FL_USA Heating 99.6% Conditions,  !- Name
    1,                       !- Month
    21,                      !- Day of Month
    WinterDesignDay,         !- Day Type
    2.20,                    !- Maximum Dry-Bulb Temperature {C}
    0.00,                    !- Daily Dry-Bulb Temperature Range {deltaC}
    ,                        !- Dry-Bulb Temperature Range Modifier Type
    ,                        !- Dry-Bulb Temperature Range Modifier Day Schedule Name
    Wetbulb,                 !- Humidity Condition Type
    2.20,                    !- Wetbulb or DewPoint at Maximum Dry-Bulb {C}
    ,                        !- Humidity Condition Day Schedule Name
    ,                        !- Humidity Ratio at Maximum Dry-Bulb {kgWater/kgDryAir}
    ,                        !- Enthalpy at Maximum Dry-Bulb {J/kg}
    ,                        !- Daily Wet-Bulb Temperature Range {deltaC}
    101288.96,               !- Barometric Pressure {Pa}
    3.50,                    !- Wind Speed {m/s}
    20.00,                   !- Wind Direction {deg}
    No,                      !- Rain Indicator
    No,                      !- Snow Indicator
    No,                      !- Daylight Saving Time Indicator
    ASHRAEClearSky,          !- Solar Model Indicator
    ,                        !- Beam Solar Day Schedule Name
    ,                        !- Diffuse Solar Day Schedule Name
    ,                        !- ASHRAE Clear Sky Optical Depth for Beam Irradiance (taub) {dimensionless}
    ,                        !- ASHRAE Clear Sky Optical Depth for Diffuse Irradiance (taud) {dimensionless}
    0.00;                    !- Sky Clearness

! TAMPA_INTL_AIRPORT_FL_USA Cooling Design Conditions Wind Speed=   4.40 Wind Dir= 270.00
! TAMPA_INTL_AIRPORT_FL_USA Cooling (DB=>MWB) .4%, MaxDB=  33.60 MWB=  25.10

  SizingPeriod:DesignDay,
    TAMPA_INTL_AIRPORT_FL_USA Cooling .4% Conditions DB=>MWB,  !- Name
    7,                       !- Month
    21,                      !- Day of Month
    SummerDesignDay,         !- Day Type
    33.60,                   !- Maximum Dry-Bulb Temperature {C}
    8.30,                    !- Daily Dry-Bulb Temperature Range {deltaC}
    ,                        !- Dry-Bulb Temperature Range Modifier Type
    ,                        !- Dry-Bulb Temperature Range Modifier Day Schedule Name
    Wetbulb,                 !- Humidity Condition Type
    25.10,                   !- Wetbulb or DewPoint at Maximum Dry-Bulb {C}
    ,                        !- Humidity Condition Day Schedule Name
    ,                        !- Humidity Ratio at Maximum Dry-Bulb {kgWater/kgDryAir}
    ,                        !- Enthalpy at Maximum Dry-Bulb {J/kg}
    ,                        !- Daily Wet-Bulb Temperature Range {deltaC}
    101288.96,               !- Barometric Pressure {Pa}
    4.40,                    !- Wind Speed {m/s}
    270.00,                  !- Wind Direction {deg}
    No,                      !- Rain Indicator
    No,                      !- Snow Indicator
    No,                      !- Daylight Saving Time Indicator
    ASHRAEClearSky,          !- Solar Model Indicator
    ,                        !- Beam Solar Day Schedule Name
    ,                        !- Diffuse Solar Day Schedule Name
    ,                        !- ASHRAE Clear Sky Optical Depth for Beam Irradiance (taub) {dimensionless}
    ,                        !- ASHRAE Clear Sky Optical Depth for Diffuse Irradiance (taud) {dimensionless}
    1.00;                    !- Sky Clearness

  Site:GroundTemperature:BuildingSurface,20.03,20.03,20.13,20.30,20.43,20.52,20.62,20.77,20.78,20.55,20.44,20.20;

  Material,
    A1 - 1 IN STUCCO,        !- Name
    Smooth,                  !- Roughness
    2.5389841E-02,           !- Thickness {m}
    0.6918309,               !- Conductivity {W/m-K}
    1858.142,                !- Density {kg/m3}
    836.8000,                !- Specific Heat {J/kg-K}
    0.9000000,               !- Thermal Absorptance
    0.9200000,               !- Solar Absorptance
    0.9200000;               !- Visible Absorptance

  Material,
    C4 - 4 IN COMMON BRICK,  !- Name
    Rough,                   !- Roughness
    0.1014984,               !- Thickness {m}
    0.7264224,               !- Conductivity {W/m-K}
    1922.216,                !- Density {kg/m3}
    836.8000,                !- Specific Heat {J/kg-K}
    0.9000000,               !- Thermal Absorptance
    0.7600000,               !- Solar Absorptance
    0.7600000;               !- Visible Absorptance

  Material,
    E1 - 3 / 4 IN PLASTER OR GYP BOARD,  !- Name
    Smooth,                  !- Roughness
    1.9050000E-02,           !- Thickness {m}
    0.7264224,               !- Conductivity {W/m-K}
    1601.846,                !- Density {kg/m3}
    836.8000,                !- Specific Heat {J/kg-K}
    0.9000000,               !- Thermal Absorptance
    0.9200000,               !- Solar Absorptance
    0.9200000;               !- Visible Absorptance

  Material,
    C6 - 8 IN CLAY TILE,     !- Name
    Smooth,                  !- Roughness
    0.2033016,               !- Thickness {m}
    0.5707605,               !- Conductivity {W/m-K}
    1121.292,                !- Density {kg/m3}
    836.8000,                !- Specific Heat {J/kg-K}
    0.9000000,               !- Thermal Absorptance
    0.8200000,               !- Solar Absorptance
    0.8200000;               !- Visible Absorptance

  Material,
    C10 - 8 IN HW CONCRETE,  !- Name
    MediumRough,             !- Roughness
    0.2033016,               !- Thickness {m}
    1.729577,                !- Conductivity {W/m-K}
    2242.585,                !- Density {kg/m3}
    836.8000,                !- Specific Heat {J/kg-K}
    0.9000000,               !- Thermal Absorptance
    0.6500000,               !- Solar Absorptance
    0.6500000;               !- Visible Absorptance

  Material,
    E2 - 1 / 2 IN SLAG OR STONE,  !- Name
    Rough,                   !- Roughness
    1.2710161E-02,           !- Thickness {m}
    1.435549,                !- Conductivity {W/m-K}
    881.0155,                !- Density {kg/m3}
    1673.600,                !- Specific Heat {J/kg-K}
    0.9000000,               !- Thermal Absorptance
    0.5500000,               !- Solar Absorptance
    0.5500000;               !- Visible Absorptance

  Material,
    E3 - 3 / 8 IN FELT AND MEMBRANE,  !- Name
    Rough,                   !- Roughness
    9.5402403E-03,           !- Thickness {m}
    0.1902535,               !- Conductivity {W/m-K}
    1121.292,                !- Density {kg/m3}
    1673.600,                !- Specific Heat {J/kg-K}
    0.9000000,               !- Thermal Absorptance
    0.7500000,               !- Solar Absorptance
    0.7500000;               !- Visible Absorptance

  Material,
    B5 - 1 IN DENSE INSULATION,  !- Name
    VeryRough,               !- Roughness
    2.5389841E-02,           !- Thickness {m}
    4.3239430E-02,           !- Conductivity {W/m-K}
    91.30524,                !- Density {kg/m3}
    836.8000,                !- Specific Heat {J/kg-K}
    0.9000000,               !- Thermal Absorptance
    0.5000000,               !- Solar Absorptance
    0.5000000;               !- Visible Absorptance

  Material,
    C12 - 2 IN HW CONCRETE,  !- Name
    MediumRough,             !- Roughness
    5.0901599E-02,           !- Thickness {m}
    1.729577,                !- Conductivity {W/m-K}
    2242.585,                !- Density {kg/m3}
    836.8000,                !- Specific Heat {J/kg-K}
    0.9000000,               !- Thermal Absorptance
    0.6500000,               !- Solar Absorptance
    0.6500000;               !- Visible Absorptance

  WindowMaterial:Glazing,
    WIN-LAY-GLASS-LIGHT,     !- Name
    SpectralAverage,         !- Optical Data Type
    ,                        !- Window Glass Spectral Data Set Name
    0.003,                   !- Thickness {m}
    0.90,                    !- Solar Transmittance at Normal Incidence
    0.031,                   !- Front Side Solar Reflectance at Normal Incidence
    0.031,                   !- Back Side Solar Reflectance at Normal Incidence
    0.90,                    !- Visible Transmittance at Normal Incidence
    0.05,                    !- Front Side Visible Reflectance at Normal Incidence
    0.05,                    !- Back Side Visible Reflectance at Normal Incidence
    0.0,                     !- Infrared Transmittance at Normal Incidence
    0.84,                    !- Front Side Infrared Hemispherical Emissivity
    0.84,                    !- Back Side Infrared Hemispherical Emissivity
    0.9;                     !- Conductivity {W/m-K}

  Construction,
    EXTWALL,                 !- Name
    A1 - 1 IN STUCCO,        !- Outside Layer
    C4 - 4 IN COMMON BRICK,  !- Layer 2
    E1 - 3 / 4 IN PLASTER OR GYP BOARD;  !- Layer 3

  Construction,
    PARTITION,               !- Name
    E1 - 3 / 4 IN PLASTER OR GYP BOARD,  !- Outside Layer
    C6 - 8 IN CLAY TILE,     !- Layer 2
    E1 - 3 / 4 IN PLASTER OR GYP BOARD;  !- Layer 3

  Construction,
    FLOORSLAB,               !- Name
    C10 - 8 IN HW CONCRETE;  !- Outside Layer

  Construction,
    ROOF,                    !- Name
    E2 - 1 / 2 IN SLAG OR STONE,  !- Outside Layer
    E3 - 3 / 8 IN FELT AND MEMBRANE,  !- Layer 2
    B5 - 1 IN DENSE INSULATION,  !- Layer 3
    C12 - 2 IN HW CONCRETE;  !- Layer 4

  Construction,
    WIN-CON-LIGHT,           !- Name
    WIN-LAY-GLASS-LIGHT;     !- Outside Layer

  Zone,
    WEST ZONE,               !- Name
    0,                       !- Direction of Relative North {deg}
    0,                       !- X Origin {m}
    0,                       !- Y Origin {m}
    0,                       !- Z Origin {m}
    1,                       !- Type
    1,                       !- Multiplier
    autocalculate,           !- Ceiling Height {m}
    autocalculate,           !- Volume {m3}
    autocalculate,           !- Floor Area {m2}
    TARP;                    !- Zone Inside Convection Algorithm

  Zone,
    MID-UPP ZONE,            !- Name
    0,                       !- Direction of Relative North {deg}
    0,                       !- X Origin {m}
    0,                       !- Y Origin {m}
    0,                       !- Z Origin {m}
    1,                       !- Type
    1,                       !- Multiplier
    autocalculate,           !- Ceiling Height {m}
    autocalculate,           !- Volume {m3}
    autocalculate,           !- Floor Area {m2}
    TARP;                    !- Zone Inside Convection Algorithm

  Zone,
    MID-LOW ZONE,            !- Name
    0,                       !- Direction of Relative North {deg}
    0,                       !- X Origin {m}
    0,                       !- Y Origin {m}
    0,                       !- Z Origin {m}
    1,                       !- Type
    1,                       !- Multiplier
    autocalculate,           !- Ceiling Height {m}
    autocalculate,           !- Volume {m3}
    autocalculate,           !- Floor Area {m2}
    TARP;                    !- Zone Inside Convection Algorithm

  Zone,
    EAST ZONE,               !- Name
    0,                       !- Direction of Relative North {deg}
    0,                       !- X Origin {m}
    0,                       !- Y Origin {m}
    0,                       !- Z Origin {m}
    1,                       !- Type
    1,                       !- Multiplier
    autocalculate,           !- Ceiling Height {m}
    autocalculate,           !- Volume {m3}
    autocalculate,           !- Floor Area {m2}
    TARP;                    !- Zone Inside Convection Algorithm

  GlobalGeometryRules,
    UpperLeftCorner,         !- Starting Vertex Position
    CounterClockWise,        !- Vertex Entry Direction
    World;                   !- Coordinate System

  BuildingSurface:Detailed,
    WESTZN:SOUTHWALL:BOTTOM, !- Name
    WALL,                    !- Surface Type
    EXTWALL,                 !- Construction Name
    WEST ZONE,               !- Zone Name
    ,                        !- Space Name
    Outdoors,                !- Outside Boundary Condition
    ,                        !- Outside Boundary Condition Object
    SunExposed,              !- Sun Exposure
    WindExposed,             !- Wind Exposure
    0.5000000,               !- View Factor to Ground
    4,                       !- Number of Vertices
    0.0,0.0,1.5,  !- X,Y,Z ==> Vertex 1 {m}
    0.0,0.0,0.0,  !- X,Y,Z ==> Vertex 2 {m}
    4.0,0.0,0.0,  !- X,Y,Z ==> Vertex 3 {m}
    4.0,0.0,1.5;  !- X,Y,Z ==> Vertex 4 {m}

  BuildingSurface:Detailed,
    WESTZN:SOUTHWALL:MIDLOW, !- Name
    WALL,                    !- Surface Type
    EXTWALL,                 !- Construction Name
    WEST ZONE,               !- Zone Name
    ,                        !- Space Name
    Outdoors,                !- Outside Boundary Condition
    ,                        !- Outside Boundary Condition Object
    SunExposed,              !- Sun Exposure
    WindExposed,             !- Wind Exposure
    0.5,                     !- View Factor to Ground
    4,                       !- Number of Vertices
    0.0,0.0,3.0,  !- X,Y,Z ==> Vertex 1 {m}
    0.0,0.0,1.5,  !- X,Y,Z ==> Vertex 2 {m}
    4.0,0.0,1.5,  !- X,Y,Z ==> Vertex 3 {m}
    4.0,0.0,3.0;  !- X,Y,Z ==> Vertex 4 {m}

  BuildingSurface:Detailed,
    WESTZN:SOUTHWALL:MIDUPP, !- Name
    WALL,                    !- Surface Type
    EXTWALL,                 !- Construction Name
    WEST ZONE,               !- Zone Name
    ,                        !- Space Name
    Outdoors,                !- Outside Boundary Condition
    ,                        !- Outside Boundary Condition Object
    SunExposed,              !- Sun Exposure
    WindExposed,             !- Wind Exposure
    0.5,                     !- View Factor to Ground
    4,                       !- Number of Vertices
    0.0,0.0,4.5,  !- X,Y,Z ==> Vertex 1 {m}
    0.0,0.0,3.0,  !- X,Y,Z ==> Vertex 2 {m}
    4.0,0.0,3.0,  !- X,Y,Z ==> Vertex 3 {m}
    4.0,0.0,4.5;  !- X,Y,Z ==> Vertex 4 {m}

  BuildingSurface:Detailed,
    WESTZN:SOUTHWALL:TOP,    !- Name
    WALL,                    !- Surface Type
    EXTWALL,                 !- Construction Name
    WEST ZONE,               !- Zone Name
    ,                        !- Space Name
    Outdoors,                !- Outside Boundary Condition
    ,                        !- Outside Boundary Condition Object
    SunExposed,              !- Sun Exposure
    WindExposed,             !- Wind Exposure
    0.5,                     !- View Factor to Ground
    4,                       !- Number of Vertices
    0.0,0.0,6.0,  !- X,Y,Z ==> Vertex 1 {m}
    0.0,0.0,4.5,  !- X,Y,Z ==> Vertex 2 {m}
    4.0,0.0,4.5,  !- X,Y,Z ==> Vertex 3 {m}
    4.0,0.0,6.0;  !- X,Y,Z ==> Vertex 4 {m}

  BuildingSurface:Detailed,
    WESTZN:WESTWALL:BOTTOM,  !- Name
    WALL,                    !- Surface Type
    EXTWALL,                 !- Construction Name
    WEST ZONE,               !- Zone Name
    ,                        !- Space Name
    Outdoors,                !- Outside Boundary Condition
    ,                        !- Outside Boundary Condition Object
    SunExposed,              !- Sun Exposure
    WindExposed,             !- Wind Exposure
    0.5,                     !- View Factor to Ground
    4,                       !- Number of Vertices
    0.0,4.0,1.5,  !- X,Y,Z ==> Vertex 1 {m}
    0.0,4.0,0.0,  !- X,Y,Z ==> Vertex 2 {m}
    0.0,0.0,0.0,  !- X,Y,Z ==> Vertex 3 {m}
    0.0,0.0,1.5;  !- X,Y,Z ==> Vertex 4 {m}

  BuildingSurface:Detailed,
    WESTZN:WESTWALL:MIDLOW,  !- Name
    WALL,                    !- Surface Type
    EXTWALL,                 !- Construction Name
    WEST ZONE,               !- Zone Name
    ,                        !- Space Name
    Outdoors,                !- Outside Boundary Condition
    ,                        !- Outside Boundary Condition Object
    SunExposed,              !- Sun Exposure
    WindExposed,             !- Wind Exposure
    0.5,                     !- View Factor to Ground
    4,                       !- Number of Vertices
    0.0,4.0,3.0,  !- X,Y,Z ==> Vertex 1 {m}
    0.0,4.0,1.5,  !- X,Y,Z ==> Vertex 2 {m}
    0.0,0.0,1.5,  !- X,Y,Z ==> Vertex 3 {m}
    0.0,0.0,3.0;  !- X,Y,Z ==> Vertex 4 {m}

  BuildingSurface:Detailed,
    WESTZN:WESTWALL:MIDUPP,  !- Name
    WALL,                    !- Surface Type
    EXTWALL,                 !- Construction Name
    WEST ZONE,               !- Zone Name
    ,                        !- Space Name
    Outdoors,                !- Outside Boundary Condition
    ,                        !- Outside Boundary Condition Object
    SunExposed,              !- Sun Exposure
    WindExposed,             !- Wind Exposure
    0.5,                     !- View Factor to Ground
    4,                       !- Number of Vertices
    0.0,4.0,4.5,  !- X,Y,Z ==> Vertex 1 {m}
    0.0,4.0,3.0,  !- X,Y,Z ==> Vertex 2 {m}
    0.0,0.0,3.0,  !- X,Y,Z ==> Vertex 3 {m}
    0.0,0.0,4.5;  !- X,Y,Z ==> Vertex 4 {m}

  BuildingSurface:Detailed,
    WESTZN:WESTWALL:TOP,     !- Name
    WALL,                    !- Surface Type
    EXTWALL,                 !- Construction Name
    WEST ZONE,               !- Zone Name
    ,                        !- Space Name
    Outdoors,                !- Outside Boundary Condition
    ,                        !- Outside Boundary Condition Object
    SunExposed,              !- Sun Exposure
    WindExposed,             !- Wind Exposure
    0.5,                     !- View Factor to Ground
    4,                       !- Number of Vertices
    0.0,4.0,6.0,  !- X,Y,Z ==> Vertex 1 {m}
    0.0,4.0,4.5,  !- X,Y,Z ==> Vertex 2 {m}
    0.0,0.0,4.5,  !- X,Y,Z ==> Vertex 3 {m}
    0.0,0.0,6.0;  !- X,Y,Z ==> Vertex 4 {m}

  BuildingSurface:Detailed,
    WESTZN:NORTHWALL:BOTTOM, !- Name
    WALL,                    !- Surface Type
    EXTWALL,                 !- Construction Name
    WEST ZONE,               !- Zone Name
    ,                        !- Space Name
    Outdoors,                !- Outside Boundary Condition
    ,                        !- Outside Boundary Condition Object
    SunExposed,              !- Sun Exposure
    WindExposed,             !- Wind Exposure
    0.5000000,               !- View Factor to Ground
    4,                       !- Number of Vertices
    4.0,4.0,1.5,  !- X,Y,Z ==> Vertex 1 {m}
    4.0,4.0,0.0,  !- X,Y,Z ==> Vertex 2 {m}
    0.0,4.0,0.0,  !- X,Y,Z ==> Vertex 3 {m}
    0.0,4.0,1.5;  !- X,Y,Z ==> Vertex 4 {m}

  BuildingSurface:Detailed,
    WESTZN:NORTHWALL:MIDLOW, !- Name
    WALL,                    !- Surface Type
    EXTWALL,                 !- Construction Name
    WEST ZONE,               !- Zone Name
    ,                        !- Space Name
    Outdoors,                !- Outside Boundary Condition
    ,                        !- Outside Boundary Condition Object
    SunExposed,              !- Sun Exposure
    WindExposed,             !- Wind Exposure
    0.5,                     !- View Factor to Ground
    4,                       !- Number of Vertices
    4.0,4.0,3.0,  !- X,Y,Z ==> Vertex 1 {m}
    4.0,4.0,1.5,  !- X,Y,Z ==> Vertex 2 {m}
    0.0,4.0,1.5,  !- X,Y,Z ==> Vertex 3 {m}
    0.0,4.0,3.0;  !- X,Y,Z ==> Vertex 4 {m}

  BuildingSurface:Detailed,
    WESTZN:NORTHWALL:MIDUPP, !- Name
    WALL,                    !- Surface Type
    EXTWALL,                 !- Construction Name
    WEST ZONE,               !- Zone Name
    ,                        !- Space Name
    Outdoors,                !- Outside Boundary Condition
    ,                        !- Outside Boundary Condition Object
    SunExposed,              !- Sun Exposure
    WindExposed,             !- Wind Exposure
    0.5,                     !- View Factor to Ground
    4,                       !- Number of Vertices
    4.0,4.0,4.5,  !- X,Y,Z ==> Vertex 1 {m}
    4.0,4.0,3.0,  !- X,Y,Z ==> Vertex 2 {m}
    0.0,4.0,3.0,  !- X,Y,Z ==> Vertex 3 {m}
    0.0,4.0,4.5;  !- X,Y,Z ==> Vertex 4 {m}

  BuildingSurface:Detailed,
    WESTZN:NORTHWALL:TOP,    !- Name
    WALL,                    !- Surface Type
    EXTWALL,                 !- Construction Name
    WEST ZONE,               !- Zone Name
    ,                        !- Space Name
    Outdoors,                !- Outside Boundary Condition
    ,                        !- Outside Boundary Condition Object
    SunExposed,              !- Sun Exposure
    WindExposed,             !- Wind Exposure
    0.5,                     !- View Factor to Ground
    4,                       !- Number of Vertices
    4.0,4.0,6.0,  !- X,Y,Z ==> Vertex 1 {m}
    4.0,4.0,4.5,  !- X,Y,Z ==> Vertex 2 {m}
    0.0,4.0,4.5,  !- X,Y,Z ==> Vertex 3 {m}
    0.0,4.0,6.0;  !- X,Y,Z ==> Vertex 4 {m}

  BuildingSurface:Detailed,
    WESTZN:EASTWALL:BOTTOM,  !- Name
    WALL,                    !- Surface Type
    PARTITION,               !- Construction Name
    WEST ZONE,               !- Zone Name
    ,                        !- Space Name
    Surface,                 !- Outside Boundary Condition
    MIDLOWZN:WESTWALL:BOTTOM,!- Outside Boundary Condition Object
    NoSun,                   !- Sun Exposure
    NoWind,                  !- Wind Exposure
    0.5,                     !- View Factor to Ground
    4,                       !- Number of Vertices
    4.0,0.0,1.5,  !- X,Y,Z ==> Vertex 1 {m}
    4.0,0.0,0.0,  !- X,Y,Z ==> Vertex 2 {m}
    4.0,4.0,0.0,  !- X,Y,Z ==> Vertex 3 {m}
    4.0,4.0,1.5;  !- X,Y,Z ==> Vertex 4 {m}

  BuildingSurface:Detailed,
    WESTZN:EASTWALL:MIDLOW,  !- Name
    WALL,                    !- Surface Type
    PARTITION,               !- Construction Name
    WEST ZONE,               !- Zone Name
    ,                        !- Space Name
    Surface,                 !- Outside Boundary Condition
    MIDLOWZN:WESTWALL:TOP,   !- Outside Boundary Condition Object
    NoSun,                   !- Sun Exposure
    NoWind,                  !- Wind Exposure
    0.5,                     !- View Factor to Ground
    4,                       !- Number of Vertices
    4.0,0.0,3.0,  !- X,Y,Z ==> Vertex 1 {m}
    4.0,0.0,1.5,  !- X,Y,Z ==> Vertex 2 {m}
    4.0,4.0,1.5,  !- X,Y,Z ==> Vertex 3 {m}
    4.0,4.0,3.0;  !- X,Y,Z ==> Vertex 4 {m}

  BuildingSurface:Detailed,
    WESTZN:EASTWALL:MIDUPP,  !- Name
    WALL,                    !- Surface Type
    PARTITION,               !- Construction Name
    WEST ZONE,               !- Zone Name
    ,                        !- Space Name
    Surface,                 !- Outside Boundary Condition
    MIDUPPZN:WESTWALL:BOTTOM,!- Outside Boundary Condition Object
    NoSun,                   !- Sun Exposure