!-Generator IDFEditor 1.34
!-Option SortedOrder UseSpecialFormat
!-NOTE: All comments with '!-' are ignored by the IDFEditor and are generated automatically.
!-      Use '!' comments if they need to be retained when using the IDFEditor.
!-   ===========  ALL OBJECTS IN CLASS: VERSION ===========
! PackagedTerminalHeatPumpVSAS.idf
! Basic file description:  1 story office building divided into 3 interior conditioned zones.
!
! Highlights:              Example of Packaged Terminal Heat Pump.
!
! Simulation Location/Run: Miami Intl Ap FL USA WMO=722020, 2 design days, 2 run periods.
!                          Run Control executes the design days only.
!
! Location:                Miami, FL USA
!
! Design Days:             Miami Intl Ap FL USA Annual Heating 99.6%, MaxDB=8.7°C
!                          Miami Intl Ap FL USA Annual Cooling (DB=>MWB) .4%, MaxDB=33.2°C MWB=25.3°C
!
! Run Period (Weather File): Winter 1/14, Summer 7/7.
!
! Run Control:             Zone sizing required, No System sizing required (Run Control executes 2 design days)
!
! Building: Single floor rectangular L-shaped building 40 ft south wall, 40 ft west wall, zone height 10 feet.
!           There is a single 3 mm clear window in the West zone south wall. The walls are 1 in stucco over 4 in
!           common brick and 1 in dense insulation with gypboard on the interior. The roof is a built up roof with
!           1/2 in stone over 3/8 in felt over 4 in dense insulation supported by 2 in heavy weight concrete. The
!           floor is 8 in heavy weight concrete with carpeting. The window to wall ratio is approximately 0.07.
!           Infiltration is fixed at 0.02 m3/s in East zone in winter.
!
!           The building is oriented due north.
!
! Floor Area:        130.1 m2 (1403 ft2)
! Number of Stories: 1
!
! Zone Description Details:
!
!       (0,12.192,0)                 (9.144,12.192,0)
!           ________________________________
!          |                                |
!          |                                |
!          |                                |
!          |                                |
!          |           North                |
!          |         (Zone 3)               |
!          |                                |
!          |             (6.096,6.096,0)    |
!          |________________________________|____________ (12.192,6.069,0)
!          | (0,6.096,0)        |    (9.144,6.096,0)     |
!          |                    |                        |
!          |                    |                        |
!          |                    |                        |
!          |       West         |         East           |    window = *
!          |     (Zone 1)       |       (Zone 2)         |
!          |                    |                        |
!          |                    |                        |
!          |___**************___|________________________|
!
!      (0,0,0)             (6.069,0,0)               (12.192,0,0)
!
! Internal gains description:     ZONE West  - lighting is 1878.6252 watts, equip is 1928.751 watts, 3 occupants
! Internal gains description:     ZONE East  - lighting is  878.6252 watts, equip is  464.375 watts, 5 occupants
! Internal gains description:     ZONE North - lighting is  878.6252 watts, equip is 2928.751 watts, 4 occupants
!
! Interzone Surfaces:             3 interzone surfaces (see diagram)
! Internal Mass:                  None
! People:                         12
! Lights:                         3636 W
! Equipment:                      5322 W
! Windows:                        1 - single pane clear 3mm glass, size = 5 sq. meters
! Detached Shading:               None
! Daylight:                       None
! Natural Ventilation:            None
! Compact Schedules:              Yes
! Solair Distribution:            FullInteriorAndExterior
!
! HVAC:                           Single zone packaged terminal heat pump's condition the North, East, and West zones.
!                                 Thermostat setting at 22.5 C heating set point and 23.5 C cooling set point. This
!                                 example input file is intended to provide a variety of configurations for the packaged
!                                 terminal heat pump. Thermostat set up, fan configuration, and component autosizing
!                                 are varied. Proper control of interior temperatures requires use of a dual
!                                 set point thermostat in each zone. Simply use the commented thermostats (search for
!                                 ZoneControl:Thermostat) below. Uncomment the 2 dual set point thermostats in the
!                                 EAST and NORTH zones and comment out the single set point thermostats for these same
!                                 zones using the comment character (!).
!
! Zonal Equipment:                3 ea. PACKAGEDTERMINAL:HEATPUMP:AIRTOAIR
!                                 Zone 1: Constant volume PTHP operating at different cooling and heating air flow rates.
!                                (West)   Air flow rate when compressor is off is either cooling or heating air flow
!                                         during last compressor ON cycle since the fan continues to operate when the
!                                         compressor is off (ContFanCycComp).
!                                         Cooling and heating coils are scheduled on all year.
!                                         Thermostat uses dual set point.
!                                         The fan for this PTHP is also set up to model a multi-speed fan motor.
!                                         See Fan:OnOff = Zone1PTHPFan for further detail.
!                                 Zone 2: Constant volume PTHP operating at autosized cooling and heating air flow rates.
!                                (East)   Air flow rate when compressor is off is 0 since the fan cycles off with the
!                                         compressor (CycFanCycComp).
!                                         Cooling coil active during summer months, heating coil active during winter
!                                         months. Thermostat uses single heating or cooling set point.
!                                 Zone 3: Constant volume PTHP operating at autosized cooling and heating air flow rates.
!                                (North)  Air flow rate when compressor is off is also autosized.
!                                         Cooling coil active during summer months, heating coil active during winter
!                                         months. Thermostat uses single heating or cooling set point
!
! Central Air Handling Equipment: No
! System Equipment Autosize:      No
! Purchased Cooling:              No
! Purchased Heating:              No
! Purchased Chilled Water:        No
! Purchased Hot Water:            No
! Coils:                          COIL:Heating:DX:VariableSpeed, Coil:Cooling:DX:VariableSpeed, COIL:ELECTRIC:HEATING
! Pumps:                          None
! Boilers:                        None
! Chillers:                       None
! Towers:                         None
!
! Results:
! Standard Reports:               None
! Timestep or Hourly Variables:   Timestep
! Time bins Report:               None
! HTML Report:                    None
! Environmental Emissions:        None
! Utility Tariffs:                None

  Version,24.1;

!-   ===========  ALL OBJECTS IN CLASS: ZONEHVAC:PACKAGEDTERMINALHEATPUMP ===========

  ZoneHVAC:PackagedTerminalHeatPump,
    Zone1PTHP,               !- Name
    FanAndCoilAvailSched,    !- Availability Schedule Name
    Zone1PTHPAirInletNode,   !- Air Inlet Node Name
    Zone1PTHPAirOutletNode,  !- Air Outlet Node Name
    OutdoorAir:Mixer,        !- Outdoor Air Mixer Object Type
    Zone1PTHPOAMixer,        !- Outdoor Air Mixer Name
    0.4,                     !- Cooling Supply Air Flow Rate {m3/s}
    0.4,                     !- Heating Supply Air Flow Rate {m3/s}
    ,                        !- No Load Supply Air Flow Rate {m3/s}
    ,                        !- No Load Supply Air Flow Rate Control Set To Low Speed
    0.028,                   !- Cooling Outdoor Air Flow Rate {m3/s}
    0.028,                   !- Heating Outdoor Air Flow Rate {m3/s}
    0.0186,                  !- No Load Outdoor Air Flow Rate {m3/s}
    Fan:SystemModel,         !- Supply Air Fan Object Type
    Zone1PTHPFan,            !- Supply Air Fan Name
    Coil:Heating:DX:VariableSpeed,  !- Heating Coil Object Type
    Zone1PTHPDXHeatCoil,     !- Heating Coil Name
    0.001,                   !- Heating Convergence Tolerance {dimensionless}
    Coil:Cooling:DX:VariableSpeed,  !- Cooling Coil Object Type
    Zone1PTHPDXCoolCoil,     !- Cooling Coil Name
    0.001,                   !- Cooling Convergence Tolerance {dimensionless}
    Coil:Heating:Electric,   !- Supplemental Heating Coil Object Type
    Zone1PTHPSupHeater,      !- Supplemental Heating Coil Name
    50.0,                    !- Maximum Supply Air Temperature from Supplemental Heater {C}
    10.0,                    !- Maximum Outdoor Dry-Bulb Temperature for Supplemental Heater Operation {C}
    BlowThrough,             !- Fan Placement
    ConstantFanSch;          !- Supply Air Fan Operating Mode Schedule Name

  ZoneHVAC:PackagedTerminalHeatPump,
    Zone2PTHP,               !- Name
    FanAndCoilAvailSched,    !- Availability Schedule Name
    Zone2PTHPAirInletNode,   !- Air Inlet Node Name
    Zone2PTHPAirOutletNode,  !- Air Outlet Node Name
    OutdoorAir:Mixer,        !- Outdoor Air Mixer Object Type
    Zone2PTHPOAMixer,        !- Outdoor Air Mixer Name
    autosize,                !- Cooling Supply Air Flow Rate {m3/s}
    autosize,                !- Heating Supply Air Flow Rate {m3/s}
    autosize,                !- No Load Supply Air Flow Rate {m3/s}
    ,                        !- No Load Supply Air Flow Rate Control Set To Low Speed
    autosize,                !- Cooling Outdoor Air Flow Rate {m3/s}
    autosize,                !- Heating Outdoor Air Flow Rate {m3/s}
    autosize,                !- No Load Outdoor Air Flow Rate {m3/s}
    Fan:SystemModel,         !- Supply Air Fan Object Type
    Zone2PTHPFan,            !- Supply Air Fan Name
    Coil:Heating:DX:VariableSpeed,  !- Heating Coil Object Type
    Zone2PTHPDXHeatCoil,     !- Heating Coil Name
    0.001,                   !- Heating Convergence Tolerance {dimensionless}
    Coil:Cooling:DX:VariableSpeed,  !- Cooling Coil Object Type
    Zone2PTHPDXCoolCoil,     !- Cooling Coil Name
    0.001,                   !- Cooling Convergence Tolerance {dimensionless}
    Coil:Heating:Electric,   !- Supplemental Heating Coil Object Type
    Zone2PTHPSupHeater,      !- Supplemental Heating Coil Name
    autosize,                !- Maximum Supply Air Temperature from Supplemental Heater {C}
    10.0,                    !- Maximum Outdoor Dry-Bulb Temperature for Supplemental Heater Operation {C}
    BlowThrough,             !- Fan Placement
    CyclingFanSch;           !- Supply Air Fan Operating Mode Schedule Name

  ZoneHVAC:PackagedTerminalHeatPump,
    Zone3PTHP,               !- Name
    FanAndCoilAvailSched,    !- Availability Schedule Name
    Zone3PTHPAirInletNode,   !- Air Inlet Node Name
    Zone3PTHPAirOutletNode,  !- Air Outlet Node Name
    OutdoorAir:Mixer,        !- Outdoor Air Mixer Object Type
    Zone3PTHPOAMixer,        !- Outdoor Air Mixer Name
    autosize,                !- Cooling Supply Air Flow Rate {m3/s}
    autosize,                !- Heating Supply Air Flow Rate {m3/s}
    autosize,                !- No Load Supply Air Flow Rate {m3/s}
    ,                        !- No Load Supply Air Flow Rate Control Set To Low Speed
    autosize,                !- Cooling Outdoor Air Flow Rate {m3/s}
    autosize,                !- Heating Outdoor Air Flow Rate {m3/s}
    autosize,                !- No Load Outdoor Air Flow Rate {m3/s}
    Fan:SystemModel,         !- Supply Air Fan Object Type
    Zone3PTHPFan,            !- Supply Air Fan Name
    Coil:Heating:DX:VariableSpeed,  !- Heating Coil Object Type
    Zone3PTHPDXHeatCoil,     !- Heating Coil Name
    0.001,                   !- Heating Convergence Tolerance {dimensionless}
    Coil:Cooling:DX:VariableSpeed,  !- Cooling Coil Object Type
    Zone3PTHPDXCoolCoil,     !- Cooling Coil Name
    0.001,                   !- Cooling Convergence Tolerance {dimensionless}
    Coil:Heating:Electric,   !- Supplemental Heating Coil Object Type
    Zone3PTHPSupHeater,      !- Supplemental Heating Coil Name
    autosize,                !- Maximum Supply Air Temperature from Supplemental Heater {C}
    10.0,                    !- Maximum Outdoor Dry-Bulb Temperature for Supplemental Heater Operation {C}
    DrawThrough,             !- Fan Placement
    ConstantFanSch;          !- Supply Air Fan Operating Mode Schedule Name

!-   ===========  ALL OBJECTS IN CLASS: COIL:HEATING:DX:VARIABLESPEED ===========

  Coil:Heating:DX:VariableSpeed,
    Zone1PTHPDXHeatCoil,     !- Name
    Zone1PTHPDXCoolCoilOutletNode,  !- Indoor Air Inlet Node Name
    Zone1PTHPDXHeatCoilOutletNode,  !- Indoor Air Outlet Node Name
    10.0,                    !- Number of Speeds {dimensionless}
    10.0,                    !- Nominal Speed Level {dimensionless}
    7200.0,                  !- Rated Heating Capacity At Selected Nominal Speed Level {W}
    0.4,                     !- Rated Air Flow Rate At Selected Nominal Speed Level {m3/s}
    HPACCOOLPLFFPLR,         !- Energy Part Load Fraction Curve Name
    ,                        !- Defrost Energy Input Ratio Function of Temperature Curve Name
    2.0,                     !- Minimum Outdoor Dry-Bulb Temperature for Compressor Operation {C}
    ,                        !- Outdoor Dry-Bulb Temperature to Turn On Compressor {C}
    5.0,                     !- Maximum Outdoor Dry-Bulb Temperature for Defrost Operation {C}
    200.0,                   !- Crankcase Heater Capacity {W}
    ,                        !- Crankcase Heater Capacity Function of Temperature Curve Name
    10.0,                    !- Maximum Outdoor Dry-Bulb Temperature for Crankcase Heater Operation {C}
    Resistive,               !- Defrost Strategy
    TIMED,                   !- Defrost Control
    0.166667,                !- Defrost Time Period Fraction
    7200,                    !- Resistive Defrost Heater Capacity {W}
    1838.7,                  !- Speed 1 Reference Unit Gross Rated Heating Capacity {W}
    5.0,                     !- Speed 1 Reference Unit Gross Rated Heating COP {W/W}
    0.1661088,               !- Speed 1 Reference Unit Rated Air Flow Rate {m3/s}
    ,                        !- Speed 1 2017 Rated Evaporator Fan Power Per Volume Flow Rate {W/(m3/s)}
    ,                        !- Speed 1 2023 Rated Evaporator Fan Power Per Volume Flow Rate {W/(m3/s)}
    HPACHeatCapFT,           !- Speed 1 Heating Capacity Function of Temperature Curve Name
    HPACHeatCapFFF,          !- Speed 1 Total  Heating Capacity Function of Air Flow Fraction Curve Name
    HPACHeatEIRFT,           !- Speed 1 Energy Input Ratio Function of Temperature Curve Name
    HPACHeatEIRFFF,          !- Speed 1 Energy Input Ratio Function of Air Flow Fraction Curve Name
    2295.5,                  !- Speed 2 Reference Unit Gross Rated Heating Capacity {W}
    5.0,                     !- Speed 2 Reference Unit Gross Rated Heating COP {W/W}
    0.179322,                !- Speed 2 Reference Unit Rated Air Flow Rate {m3/s}
    ,                        !- Speed 2 2017 Rated Evaporator Fan Power Per Volume Flow Rate {W/(m3/s)}
    ,                        !- Speed 2 2023 Rated Evaporator Fan Power Per Volume Flow Rate {W/(m3/s)}
    HPACHeatCapFT,           !- Speed 2 Heating Capacity Function of Temperature Curve Name
    HPACHeatCapFFF,          !- Speed 2 Total  Heating Capacity Function of Air Flow Fraction Curve Name
    HPACHeatEIRFT,           !- Speed 2 Energy Input Ratio Function of Temperature Curve Name
    HPACHeatEIRFFF,          !- Speed 2 Energy Input Ratio Function of Air Flow Fraction Curve Name
    2751.3,                  !- Speed 3 Reference Unit Gross Rated Heating Capacity {W}
    5.0,                     !- Speed 3 Reference Unit Gross Rated Heating COP {W/W}
    0.1925352,               !- Speed 3 Reference Unit Rated Air Flow Rate {m3/s}
    ,                        !- Speed 3 2017 Rated Evaporator Fan Power Per Volume Flow Rate {W/(m3/s)}
    ,                        !- Speed 3 2023 Rated Evaporator Fan Power Per Volume Flow Rate {W/(m3/s)}
    HPACHeatCapFT,           !- Speed 3 Heating Capacity Function of Temperature Curve Name
    HPACHeatCapFFF,          !- Speed 3 Total  Heating Capacity Function of Air Flow Fraction Curve Name
    HPACHeatEIRFT,           !- Speed 3 Energy Input Ratio Function of Temperature Curve Name
    HPACHeatEIRFFF,          !- Speed 3 Energy Input Ratio Function of Air Flow Fraction Curve Name
    3659.6,                  !- Speed 4 Reference Unit Gross Rated Heating Capacity {W}
    5.0,                     !- Speed 4 Reference Unit Gross Rated Heating COP {W/W}
    0.2189616,               !- Speed 4 Reference Unit Rated Air Flow Rate {m3/s}
    ,                        !- Speed 4 2017 Rated Evaporator Fan Power Per Volume Flow Rate {W/(m3/s)}
    ,                        !- Speed 4 2023 Rated Evaporator Fan Power Per Volume Flow Rate {W/(m3/s)}
    HPACHeatCapFT,           !- Speed 4 Heating Capacity Function of Temperature Curve Name
    HPACHeatCapFFF,          !- Speed 4 Heating Capacity Function of Air Flow Fraction Curve Name
    HPACHeatEIRFT,           !- Speed 4 Energy Input Ratio Function of Temperature Curve Name
    HPACHeatEIRFFF,          !- Speed 4 Energy Input Ratio Function of Air Flow Fraction Curve Name
    4563.7,                  !- Speed 5 Reference Unit Gross Rated Heating Capacity {W}
    5.0,                     !- Speed 5 Reference Unit Gross Rated Heating COP {W/W}
    0.245388,                !- Speed 5 Reference Unit Rated Air Flow Rate {m3/s}
    ,                        !- Speed 5 2017 Rated Evaporator Fan Power Per Volume Flow Rate {W/(m3/s)}
    ,                        !- Speed 5 2023 Rated Evaporator Fan Power Per Volume Flow Rate {W/(m3/s)}
    HPACHeatCapFT,           !- Speed 5 Heating Capacity Function of Temperature Curve Name
    HPACHeatCapFFF,          !- Speed 5 Heating Capacity Function of Air Flow Fraction Curve Name
    HPACHeatEIRFT,           !- Speed 5 Energy Input Ratio Function of Temperature Curve Name
    HPACHeatEIRFFF,          !- Speed 5 Energy Input Ratio Function of Air Flow Fraction Curve Name
    5463.3,                  !- Speed 6 Reference Unit Gross Rated Heating Capacity {W}
    5.0,                     !- Speed 6 Reference Unit Gross Rated Heating COP {W/W}
    0.2718144,               !- Speed 6 Reference Unit Rated Air Flow Rate {m3/s}
    ,                        !- Speed 6 2017 Rated Evaporator Fan Power Per Volume Flow Rate {W/(m3/s)}
    ,                        !- Speed 6 2023 Rated Evaporator Fan Power Per Volume Flow Rate {W/(m3/s)}
    HPACHeatCapFT,           !- Speed 6 Heating Capacity Function of Temperature Curve Name
    HPACHeatCapFFF,          !- Speed 6 Heating Capacity Function of Air Flow Fraction Curve Name
    HPACHeatEIRFT,           !- Speed 6 Energy Input Ratio Function of Temperature Curve Name
    HPACHeatEIRFFF,          !- Speed 6 Energy Input Ratio Function of Air Flow Fraction Curve Name
    6358.4,                  !- Speed 7 Reference Unit Gross Rated Heating Capacity {W}
    5.0,                     !- Speed 7 Reference Unit Gross Rated Heating COP {W/W}
    0.2982408,               !- Speed 7 Reference Unit Rated Air Flow Rate {m3/s}
    ,                        !- Speed 7 2017 Rated Evaporator Fan Power Per Volume Flow Rate {W/(m3/s)}
    ,                        !- Speed 7 2023 Rated Evaporator Fan Power Per Volume Flow Rate {W/(m3/s)}
    HPACHeatCapFT,           !- Speed 7 Heating Capacity Function of Temperature Curve Name
    HPACHeatCapFFF,          !- Speed 7 Heating Capacity Function of Air Flow Fraction Curve Name
    HPACHeatEIRFT,           !- Speed 7 Energy Input Ratio Function of Temperature Curve Name
    HPACHeatEIRFFF,          !- Speed 7 Energy Input Ratio Function of Air Flow Fraction Curve Name
    7248.5,                  !- Speed 8 Reference Unit Gross Rated Heating Capacity {W}
    5.0,                     !- Speed 8 Reference Unit Gross Rated Heating COP {W/W}
    0.3246672,               !- Speed 8 Reference Unit Rated Air Flow Rate {m3/s}
    ,                        !- Speed 8 2017 Rated Evaporator Fan Power Per Volume Flow Rate {W/(m3/s)}
    ,                        !- Speed 8 2023 Rated Evaporator Fan Power Per Volume Flow Rate {W/(m3/s)}
    HPACHeatCapFT,           !- Speed 8 Heating Capacity Function of Temperature Curve Name
    HPACHeatCapFFF,          !- Speed 8 Heating Capacity Function of Air Flow Fraction Curve Name
    HPACHeatEIRFT,           !- Speed 8 Energy Input Ratio Function of Temperature Curve Name
    HPACHeatEIRFFF,          !- Speed 8 Energy Input Ratio Function of Air Flow Fraction Curve Name
    8133.6,                  !- Speed 9 Reference Unit Gross Rated Heating Capacity {W}
    5.0,                     !- Speed 9 Reference Unit Gross Rated Heating COP {W/W}
    0.3510936,               !- Speed 9 Reference Unit Rated Air Flow Rate {m3/s}
    ,                        !- Speed 9 2017 Rated Evaporator Fan Power Per Volume Flow Rate {W/(m3/s)}
    ,                        !- Speed 9 2023 Rated Evaporator Fan Power Per Volume Flow Rate {W/(m3/s)}
    HPACHeatCapFT,           !- Speed 9 Heating Capacity Function of Temperature Curve Name
    HPACHeatCapFFF,          !- Speed 9 Heating Capacity Function of Air Flow Fraction Curve Name
    HPACHeatEIRFT,           !- Speed 9 Energy Input Ratio Function of Temperature Curve Name
    HPACHeatEIRFFF,          !- Speed 9 Energy Input Ratio Function of Air Flow Fraction Curve Name
    9013.2,                  !- Speed 10 Reference Unit Gross Rated Heating Capacity {W}
    5.0,                     !- Speed 10 Reference Unit Gross Rated Heating COP {W/W}
    0.37752,                 !- Speed 10 Reference Unit Rated Air Flow Rate {m3/s}
    ,                        !- Speed 10 2017 Rated Evaporator Fan Power Per Volume Flow Rate {W/(m3/s)}
    ,                        !- Speed 10 2023 Rated Evaporator Fan Power Per Volume Flow Rate {W/(m3/s)}
    HPACHeatCapFT,           !- Speed 10 Heating Capacity Function of Temperature Curve Name
    HPACHeatCapFFF,          !- Speed 10 Heating Capacity Function of Air Flow Fraction Curve Name
    HPACHeatEIRFT,           !- Speed 10 Energy Input Ratio Function of Temperature Curve Name
    HPACHeatEIRFFF;          !- Speed 10 Energy Input Ratio Function of Air Flow Fraction Curve Name

  Coil:Heating:DX:VariableSpeed,
    Zone2PTHPDXHeatCoil,     !- Name
    Zone2PTHPCoolCoilOutletNode,  !- Indoor Air Inlet Node Name
    Zone2PTHPDXHeatCoilOutletNode,  !- Indoor Air Outlet Node Name
    10.0,                    !- Number of Speeds {dimensionless}
    10.0,                    !- Nominal Speed Level {dimensionless}
    autosize,                !- Rated Heating Capacity At Selected Nominal Speed Level {W}
    autosize,                !- Rated Air Flow Rate At Selected Nominal Speed Level {m3/s}
    HPACCOOLPLFFPLR,         !- Energy Part Load Fraction Curve Name
    ,                        !- Defrost Energy Input Ratio Function of Temperature Curve Name
    2.0,                     !- Minimum Outdoor Dry-Bulb Temperature for Compressor Operation {C}
    ,                        !- Outdoor Dry-Bulb Temperature to Turn On Compressor {C}
    5.0,                     !- Maximum Outdoor Dry-Bulb Temperature for Defrost Operation {C}
    200.0,                   !- Crankcase Heater Capacity {W}
    ,                        !- Crankcase Heater Capacity Function of Temperature Curve Name
    10.0,                    !- Maximum Outdoor Dry-Bulb Temperature for Crankcase Heater Operation {C}
    Resistive,               !- Defrost Strategy
    TIMED,                   !- Defrost Control
    0.166667,                !- Defrost Time Period Fraction
    4900,                    !- Resistive Defrost Heater Capacity {W}
    1838.7,                  !- Speed 1 Reference Unit Gross Rated Heating Capacity {W}
    5.0,                     !- Speed 1 Reference Unit Gross Rated Heating COP {W/W}
    0.1661088,               !- Speed 1 Reference Unit Rated Air Flow Rate {m3/s}
    ,                        !- Speed 1 2017 Rated Evaporator Fan Power Per Volume Flow Rate {W/(m3/s)}
    ,                        !- Speed 1 2023 Rated Evaporator Fan Power Per Volume Flow Rate {W/(m3/s)}
    HPACHeatCapFT,           !- Speed 1 Heating Capacity Function of Temperature Curve Name
    HPACHeatCapFFF,          !- Speed 1 Total  Heating Capacity Function of Air Flow Fraction Curve Name
    HPACHeatEIRFT,           !- Speed 1 Energy Input Ratio Function of Temperature Curve Name
    HPACHeatEIRFFF,          !- Speed 1 Energy Input Ratio Function of Air Flow Fraction Curve Name
    2295.5,                  !- Speed 2 Reference Unit Gross Rated Heating Capacity {W}
    5.0,                     !- Speed 2 Reference Unit Gross Rated Heating COP {W/W}
    0.179322,                !- Speed 2 Reference Unit Rated Air Flow Rate {m3/s}
    ,                        !- Speed 2 2017 Rated Evaporator Fan Power Per Volume Flow Rate {W/(m3/s)}
    ,                        !- Speed 2 2023 Rated Evaporator Fan Power Per Volume Flow Rate {W/(m3/s)}
    HPACHeatCapFT,           !- Speed 2 Heating Capacity Function of Temperature Curve Name
    HPACHeatCapFFF,          !- Speed 2 Total  Heating Capacity Function of Air Flow Fraction Curve Name
    HPACHeatEIRFT,           !- Speed 2 Energy Input Ratio Function of Temperature Curve Name
    HPACHeatEIRFFF,          !- Speed 2 Energy Input Ratio Function of Air Flow Fraction Curve Name
    2751.3,                  !- Speed 3 Reference Unit Gross Rated Heating Capacity {W}
    5.0,                     !- Speed 3 Reference Unit Gross Rated Heating COP {W/W}
    0.1925352,               !- Speed 3 Reference Unit Rated Air Flow Rate {m3/s}
    ,                        !- Speed 3 2017 Rated Evaporator Fan Power Per Volume Flow Rate {W/(m3/s)}
    ,                        !- Speed 3 2023 Rated Evaporator Fan Power Per Volume Flow Rate {W/(m3/s)}
    HPACHeatCapFT,           !- Speed 3 Heating Capacity Function of Temperature Curve Name
    HPACHeatCapFFF,          !- Speed 3 Total  Heating Capacity Function of Air Flow Fraction Curve Name
    HPACHeatEIRFT,           !- Speed 3 Energy Input Ratio Function of Temperature Curve Name
    HPACHeatEIRFFF,          !- Speed 3 Energy Input Ratio Function of Air Flow Fraction Curve Name
    3659.6,                  !- Speed 4 Reference Unit Gross Rated Heating Capacity {W}
    5.0,                     !- Speed 4 Reference Unit Gross Rated Heating COP {W/W}
    0.2189616,               !- Speed 4 Reference Unit Rated Air Flow Rate {m3/s}
    ,                        !- Speed 4 2017 Rated Evaporator Fan Power Per Volume Flow Rate {W/(m3/s)}
    ,                        !- Speed 4 2023 Rated Evaporator Fan Power Per Volume Flow Rate {W/(m3/s)}
    HPACHeatCapFT,           !- Speed 4 Heating Capacity Function of Temperature Curve Name
    HPACHeatCapFFF,          !- Speed 4 Heating Capacity Function of Air Flow Fraction Curve Name
    HPACHeatEIRFT,           !- Speed 4 Energy Input Ratio Function of Temperature Curve Name
    HPACHeatEIRFFF,          !- Speed 4 Energy Input Ratio Function of Air Flow Fraction Curve Name
    4563.7,                  !- Speed 5 Reference Unit Gross Rated Heating Capacity {W}
    5.0,                     !- Speed 5 Reference Unit Gross Rated Heating COP {W/W}
    0.245388,                !- Speed 5 Reference Unit Rated Air Flow Rate {m3/s}
    ,                        !- Speed 5 2017 Rated Evaporator Fan Power Per Volume Flow Rate {W/(m3/s)}
    ,                        !- Speed 5 2023 Rated Evaporator Fan Power Per Volume Flow Rate {W/(m3/s)}
    HPACHeatCapFT,           !- Speed 5 Heating Capacity Function of Temperature Curve Name
    HPACHeatCapFFF,          !- Speed 5 Heating Capacity Function of Air Flow Fraction Curve Name
    HPACHeatEIRFT,           !- Speed 5 Energy Input Ratio Function of Temperature Curve Name
    HPACHeatEIRFFF,          !- Speed 5 Energy Input Ratio Function of Air Flow Fraction Curve Name
    5463.3,                  !- Speed 6 Reference Unit Gross Rated Heating Capacity {W}
    5.0,                     !- Speed 6 Reference Unit Gross Rated Heating COP {W/W}
    0.2718144,               !- Speed 6 Reference Unit Rated Air Flow Rate {m3/s}
    ,                        !- Speed 6 2017 Rated Evaporator Fan Power Per Volume Flow Rate {W/(m3/s)}
    ,                        !- Speed 6 2023 Rated Evaporator Fan Power Per Volume Flow Rate {W/(m3/s)}
    HPACHeatCapFT,           !- Speed 6 Heating Capacity Function of Temperature Curve Name
    HPACHeatCapFFF,          !- Speed 6 Heating Capacity Function of Air Flow Fraction Curve Name
    HPACHeatEIRFT,           !- Speed 6 Energy Input Ratio Function of Temperature Curve Name
    HPACHeatEIRFFF,          !- Speed 6 Energy Input Ratio Function of Air Flow Fraction Curve Name
    6358.4,                  !- Speed 7 Reference Unit Gross Rated Heating Capacity {W}
    5.0,                     !- Speed 7 Reference Unit Gross Rated Heating COP {W/W}
    0.2982408,               !- Speed 7 Reference Unit Rated Air Flow Rate {m3/s}
    ,                        !- Speed 7 2017 Rated Evaporator Fan Power Per Volume Flow Rate {W/(m3/s)}