! PipingSystem_Underground_FHX.idf
! Basic File Description:
!    This input file exemplifies the use of the PipingSystem:Underground
!    collection of objects to perform the simulation of foundation heat
!    exchangers
! Highlights: Simulate a foundation heat exchanger in close proximity to a basement
! Simulation Location/Run:
! Location: Denver, CO
! Design Days SummerDesignDay and WinterDesignDay
! Run Period: Annual simulation
! Run Control: Zone, Sys, Plant sizing; Run sizing periods, don't run annual simulation
!
! Building: Idealized approximation of simple residential building with basement
! Floor Area: 150 m2 per floor
! Number of Stories: 2, one below ground
!
! Zone Description Details:
! Internal gains description: None, disabled as the feature of this input file
!   is the foundation heat exchanger operation, not zone simulation.
! Interzone Surfaces: The surface separating the main floor from the basement
!   is an unentered interzone surface.
! Internal Mass: None
! People: None
! Lights: None
! Windows: None
! Detached Shading: None
! Daylight: None
! Natural Ventilation: None
! Compact Schedules (preferred): Yes
! Solar Distribution: FullInteriorAndExterior
!
! HVAC: Water source heat pump for each floor
! Purchased Air: No
! Zonal Equipment: ZoneHVAC:WaterToAirHeatPump
! Central Air Handling Equipment: No
! System Equipment Autosize: Yes
! Purchased Cooling: No
! Purchased Heating: No
! Coils: Water-to-air heating and cooling coils
! Pumps: Variable speed
! Boilers: No
! Chillers: No
! Towers: No
!
! Results: Standard hourly variables for zone, fluid, and heat exchanger conditions
! Standard Reports: No
! Timestep or Hourly Variables: Hourly
! Time bins Report: No
! HTML Report: Yes
! Environmental Emissions: No
! Utility Tariffs: No
!***********************************************************
!****** SIMULATION CONTROLS ********************************
!***********************************************************

  Version,24.1;

  Building,
    FHX House,               !- Name
    0.0,                     !- North Axis {deg}
    Suburbs,                 !- Terrain
    0.05,                    !- Loads Convergence Tolerance Value {W}
    0.05,                    !- Temperature Convergence Tolerance Value {deltaC}
    FullInteriorAndExterior, !- Solar Distribution
    35,                      !- Maximum Number of Warmup Days
    6;                       !- Minimum Number of Warmup Days

  Timestep,4;

  GlobalGeometryRules,
    UpperLeftCorner,         !- Starting Vertex Position
    CounterClockWise,        !- Vertex Entry Direction
    Relative;                !- Coordinate System

  RunPeriod,
    Annual Run,              !- Name
    1,                       !- Begin Month
    1,                       !- Begin Day of Month
    ,                        !- Begin Year
    12,                      !- End Month
    31,                      !- End Day of Month
    ,                        !- End Year
    Tuesday,                 !- Day of Week for Start Day
    Yes,                     !- Use Weather File Holidays and Special Days
    Yes,                     !- Use Weather File Daylight Saving Period
    No,                      !- Apply Weekend Holiday Rule
    Yes,                     !- Use Weather File Rain Indicators
    Yes;                     !- Use Weather File Snow Indicators

  SimulationControl,
    Yes,                     !- Do Zone Sizing Calculation
    Yes,                     !- Do System Sizing Calculation
    Yes,                     !- Do Plant Sizing Calculation
    Yes,                     !- Run Simulation for Sizing Periods
    No,                      !- Run Simulation for Weather File Run Periods
    No,                      !- Do HVAC Sizing Simulation for Sizing Periods
    1;                       !- Maximum Number of HVAC Sizing Simulation Passes

!***********************************************************
!****** LOCATION SPECIFIC OBJECTS **************************
!***********************************************************

  Site:Location,
    Denver Centennial CO USA WMO=724666,  !- Name
    39.57,                   !- Latitude {deg}
    -104.85,                 !- Longitude {deg}
    -7.00,                   !- Time Zone {hr}
    1793.00;                 !- Elevation {m}

  SizingPeriod:DesignDay,
    Denver Centennial Ann Htg 99.6% Condns DB,  !- Name
    12,                      !- Month
    21,                      !- Day of Month
    WinterDesignDay,         !- Day Type
    -18.8,                   !- Maximum Dry-Bulb Temperature {C}
    0.0,                     !- Daily Dry-Bulb Temperature Range {deltaC}
    ,                        !- Dry-Bulb Temperature Range Modifier Type
    ,                        !- Dry-Bulb Temperature Range Modifier Day Schedule Name
    Wetbulb,                 !- Humidity Condition Type
    -18.8,                   !- Wetbulb or DewPoint at Maximum Dry-Bulb {C}
    ,                        !- Humidity Condition Day Schedule Name
    ,                        !- Humidity Ratio at Maximum Dry-Bulb {kgWater/kgDryAir}
    ,                        !- Enthalpy at Maximum Dry-Bulb {J/kg}
    ,                        !- Daily Wet-Bulb Temperature Range {deltaC}
    81560.,                  !- Barometric Pressure {Pa}
    3,                       !- Wind Speed {m/s}
    340,                     !- Wind Direction {deg}
    No,                      !- Rain Indicator
    No,                      !- Snow Indicator
    No,                      !- Daylight Saving Time Indicator
    ASHRAEClearSky,          !- Solar Model Indicator
    ,                        !- Beam Solar Day Schedule Name
    ,                        !- Diffuse Solar Day Schedule Name
    ,                        !- ASHRAE Clear Sky Optical Depth for Beam Irradiance (taub) {dimensionless}
    ,                        !- ASHRAE Clear Sky Optical Depth for Diffuse Irradiance (taud) {dimensionless}
    0.00;                    !- Sky Clearness

  SizingPeriod:DesignDay,
    Denver Centennial Ann Clg 1% Condns DB=>MWB,  !- Name
    7,                       !- Month
    21,                      !- Day of Month
    SummerDesignDay,         !- Day Type
    32,                      !- Maximum Dry-Bulb Temperature {C}
    15.2,                    !- Daily Dry-Bulb Temperature Range {deltaC}
    ,                        !- Dry-Bulb Temperature Range Modifier Type
    ,                        !- Dry-Bulb Temperature Range Modifier Day Schedule Name
    Wetbulb,                 !- Humidity Condition Type
    15.5,                    !- Wetbulb or DewPoint at Maximum Dry-Bulb {C}
    ,                        !- Humidity Condition Day Schedule Name
    ,                        !- Humidity Ratio at Maximum Dry-Bulb {kgWater/kgDryAir}
    ,                        !- Enthalpy at Maximum Dry-Bulb {J/kg}
    ,                        !- Daily Wet-Bulb Temperature Range {deltaC}
    81560.,                  !- Barometric Pressure {Pa}
    4.9,                     !- Wind Speed {m/s}
    0,                       !- Wind Direction {deg}
    No,                      !- Rain Indicator
    No,                      !- Snow Indicator
    No,                      !- Daylight Saving Time Indicator
    ASHRAEClearSky,          !- Solar Model Indicator
    ,                        !- Beam Solar Day Schedule Name
    ,                        !- Diffuse Solar Day Schedule Name
    ,                        !- ASHRAE Clear Sky Optical Depth for Beam Irradiance (taub) {dimensionless}
    ,                        !- ASHRAE Clear Sky Optical Depth for Diffuse Irradiance (taud) {dimensionless}
    1.00;                    !- Sky Clearness

!***********************************************************
!****** SIZING CONFIGURATION *******************************
!***********************************************************

  Sizing:Parameters,
    1.3,                     !- Heating Sizing Factor
    1.3,                     !- Cooling Sizing Factor
    ;                        !- Timesteps in Averaging Window

  DesignSpecification:OutdoorAir,
    OA Sizing,               !- Name
    flow/person,             !- Outdoor Air Method
    0.0125,                  !- Outdoor Air Flow per Person {m3/s-person}
    0.0,                     !- Outdoor Air Flow per Zone Floor Area {m3/s-m2}
    0.0,                     !- Outdoor Air Flow per Zone {m3/s}
    0.0,                     !- Outdoor Air Flow Air Changes per Hour {1/hr}
    ;                        !- Outdoor Air Schedule Name

  Sizing:Zone,
    Basement,                !- Zone or ZoneList Name
    SupplyAirTemperature,    !- Zone Cooling Design Supply Air Temperature Input Method
    13.,                     !- Zone Cooling Design Supply Air Temperature {C}
    ,                        !- Zone Cooling Design Supply Air Temperature Difference {deltaC}
    SupplyAirTemperature,    !- Zone Heating Design Supply Air Temperature Input Method
    29.,                     !- Zone Heating Design Supply Air Temperature {C}
    ,                        !- Zone Heating Design Supply Air Temperature Difference {deltaC}
    0.0075,                  !- Zone Cooling Design Supply Air Humidity Ratio {kgWater/kgDryAir}
    0.004,                   !- Zone Heating Design Supply Air Humidity Ratio {kgWater/kgDryAir}
    OA Sizing,               !- Design Specification Outdoor Air Object Name
    0.0,                     !- Zone Heating Sizing Factor
    0.0,                     !- Zone Cooling Sizing Factor
    DesignDay,               !- Cooling Design Air Flow Method
    0,                       !- Cooling Design Air Flow Rate {m3/s}
    ,                        !- Cooling Minimum Air Flow per Zone Floor Area {m3/s-m2}
    ,                        !- Cooling Minimum Air Flow {m3/s}
    ,                        !- Cooling Minimum Air Flow Fraction
    DesignDay,               !- Heating Design Air Flow Method
    0,                       !- Heating Design Air Flow Rate {m3/s}
    ,                        !- Heating Maximum Air Flow per Zone Floor Area {m3/s-m2}
    ,                        !- Heating Maximum Air Flow {m3/s}
    ,                        !- Heating Maximum Air Flow Fraction
    ,                        !- Design Specification Zone Air Distribution Object Name
    No,                      !- Account for Dedicated Outdoor Air System
    NeutralSupplyAir,        !- Dedicated Outdoor Air System Control Strategy
    autosize,                !- Dedicated Outdoor Air Low Setpoint Temperature for Design {C}
    autosize;                !- Dedicated Outdoor Air High Setpoint Temperature for Design {C}

  Sizing:Zone,
    Main Floor,              !- Zone or ZoneList Name
    SupplyAirTemperature,    !- Zone Cooling Design Supply Air Temperature Input Method
    13.,                     !- Zone Cooling Design Supply Air Temperature {C}
    ,                        !- Zone Cooling Design Supply Air Temperature Difference {deltaC}
    SupplyAirTemperature,    !- Zone Heating Design Supply Air Temperature Input Method
    29.,                     !- Zone Heating Design Supply Air Temperature {C}
    ,                        !- Zone Heating Design Supply Air Temperature Difference {deltaC}
    0.0075,                  !- Zone Cooling Design Supply Air Humidity Ratio {kgWater/kgDryAir}
    0.004,                   !- Zone Heating Design Supply Air Humidity Ratio {kgWater/kgDryAir}
    OA Sizing,               !- Design Specification Outdoor Air Object Name
    0.0,                     !- Zone Heating Sizing Factor
    0.0,                     !- Zone Cooling Sizing Factor
    DesignDay,               !- Cooling Design Air Flow Method
    0,                       !- Cooling Design Air Flow Rate {m3/s}
    ,                        !- Cooling Minimum Air Flow per Zone Floor Area {m3/s-m2}
    ,                        !- Cooling Minimum Air Flow {m3/s}
    ,                        !- Cooling Minimum Air Flow Fraction
    DesignDay,               !- Heating Design Air Flow Method
    0,                       !- Heating Design Air Flow Rate {m3/s}
    ,                        !- Heating Maximum Air Flow per Zone Floor Area {m3/s-m2}
    ,                        !- Heating Maximum Air Flow {m3/s}
    ,                        !- Heating Maximum Air Flow Fraction
    ,                        !- Design Specification Zone Air Distribution Object Name
    No,                      !- Account for Dedicated Outdoor Air System
    NeutralSupplyAir,        !- Dedicated Outdoor Air System Control Strategy
    autosize,                !- Dedicated Outdoor Air Low Setpoint Temperature for Design {C}
    autosize;                !- Dedicated Outdoor Air High Setpoint Temperature for Design {C}

  Sizing:Plant,
    Condenser Loop,          !- Plant or Condenser Loop Name
    Condenser,               !- Loop Type
    29.4,                    !- Design Loop Exit Temperature {C}
    5.6;                     !- Loop Design Temperature Difference {deltaC}

!***********************************************************
!****** THERMOSTAT CONFIGURATION ***************************
!***********************************************************

  Schedule:Compact,
    Htg-SetP-Sch,            !- Name
    Temperature,             !- Schedule Type Limits Name
    Through: 12/31,          !- Field 1
    For: AllDays,            !- Field 2
    Until: 24:00,21.5;       !- Field 3

  Schedule:Compact,
    Clg-SetP-Sch,            !- Name
    Temperature,             !- Schedule Type Limits Name
    Through: 12/31,          !- Field 1
    For: AllDays,            !- Field 2
    Until: 24:00,25.5;       !- Field 3

  Schedule:Compact,
    HVACTemplate-Always 4,   !- Name
    Any Number,              !- Schedule Type Limits Name
    Through: 12/31,          !- Field 1
    For: AllDays,            !- Field 2
    Until: 24:00,4;          !- Field 3

  ThermostatSetpoint:DualSetpoint,
    Basement Dual SP Control,!- Name
    Htg-SetP-Sch,            !- Heating Setpoint Temperature Schedule Name
    Clg-SetP-Sch;            !- Cooling Setpoint Temperature Schedule Name

  ZoneControl:Thermostat,
    Basement Thermostat,     !- Name
    Basement,                !- Zone or ZoneList Name
    HVACTemplate-Always 4,   !- Control Type Schedule Name
    ThermostatSetpoint:DualSetpoint,  !- Control 1 Object Type
    Basement Dual SP Control;!- Control 1 Name

  ThermostatSetpoint:DualSetpoint,
    Main Floor Dual SP Control,  !- Name
    Htg-SetP-Sch,            !- Heating Setpoint Temperature Schedule Name
    Clg-SetP-Sch;            !- Cooling Setpoint Temperature Schedule Name

  ZoneControl:Thermostat,
    Main Floor Thermostat,   !- Name
    Main Floor,              !- Zone or ZoneList Name
    HVACTemplate-Always 4,   !- Control Type Schedule Name
    ThermostatSetpoint:DualSetpoint,  !- Control 1 Object Type
    Main Floor Dual SP Control;  !- Control 1 Name

!***********************************************************
!****** OTHER SCHEDULING ***********************************
!***********************************************************

  ScheduleTypeLimits,
    Any Number;              !- Name

  ScheduleTypeLimits,
    On/Off,                  !- Name
    0,                       !- Lower Limit Value
    1,                       !- Upper Limit Value
    DISCRETE;                !- Numeric Type

  ScheduleTypeLimits,
    Fraction,                !- Name
    0,                       !- Lower Limit Value
    1,                       !- Upper Limit Value
    CONTINUOUS;              !- Numeric Type

  ScheduleTypeLimits,
    Temperature,             !- Name
    -100,                    !- Lower Limit Value
    200,                     !- Upper Limit Value
    Continuous;              !- Numeric Type

  Schedule:Compact,
    AlwaysOnSchedule,        !- Name
    On/Off,                  !- Schedule Type Limits Name
    THROUGH: 12/31,          !- Field 1
    FOR: AllDays,            !- Field 2
    UNTIL: 24:00,1;          !- Field 3

  Schedule:Compact,
    CyclingFanSch,           !- Name
    Fraction,                !- Schedule Type Limits Name
    Through: 12/31,          !- Field 1
    For: AllDays,            !- Field 2
    Until: 24:00,0.0;        !- Field 3

  Schedule:Compact,
    FanAndCoilAvailSched,    !- Name
    Fraction,                !- Schedule Type Limits Name
    Through: 12/31,          !- Field 1
    For: AllDays,            !- Field 2
    Until: 24:00,1.0;        !- Field 3

!***********************************************************
!****** BASEMENT ZONE SPECIFICATION ************************
!***********************************************************

  Zone,
    Basement,                !- Name
    0,                       !- Direction of Relative North {deg}
    0,                       !- X Origin {m}
    0,                       !- Y Origin {m}
    0,                       !- Z Origin {m}
    ,                        !- Type
    ,                        !- Multiplier
    autocalculate,           !- Ceiling Height {m}
    autocalculate,           !- Volume {m3}
    autocalculate,           !- Floor Area {m2}
    Simple,                  !- Zone Inside Convection Algorithm
    SimpleCombined,          !- Zone Outside Convection Algorithm
    Yes;                     !- Part of Total Floor Area

  BuildingSurface:Detailed,
    Basement Wall 1,         !- Name
    Wall,                    !- Surface Type
    Basement Wall/Floor Construction,  !- Construction Name
    Basement,                !- Zone Name
    ,                        !- Space Name
    OtherSideConditionsModel,!- Outside Boundary Condition
    BasementWallOSCM,        !- Outside Boundary Condition Object
    NoSun,                   !- Sun Exposure
    NoWind,                  !- Wind Exposure
    autocalculate,           !- View Factor to Ground
    4,                       !- Number of Vertices
    0,0,0,  !- X,Y,Z ==> Vertex 1 {m}
    0,0,-3.1,  !- X,Y,Z ==> Vertex 2 {m}
    15,0,-3.1,  !- X,Y,Z ==> Vertex 3 {m}
    15,0,0;  !- X,Y,Z ==> Vertex 4 {m}

  BuildingSurface:Detailed,
    Basement Wall 2,         !- Name
    Wall,                    !- Surface Type
    Basement Wall/Floor Construction,  !- Construction Name
    Basement,                !- Zone Name
    ,                        !- Space Name
    OtherSideConditionsModel,!- Outside Boundary Condition
    BasementWallOSCM,        !- Outside Boundary Condition Object
    NoSun,                   !- Sun Exposure
    NoWind,                  !- Wind Exposure
    autocalculate,           !- View Factor to Ground
    4,                       !- Number of Vertices
    15,10,0,  !- X,Y,Z ==> Vertex 1 {m}
    15,10,-3.1,  !- X,Y,Z ==> Vertex 2 {m}
    0,10,-3.1,  !- X,Y,Z ==> Vertex 3 {m}
    0,10,0;  !- X,Y,Z ==> Vertex 4 {m}

  BuildingSurface:Detailed,
    Basement Wall 3,         !- Name
    Wall,                    !- Surface Type
    Basement Wall/Floor Construction,  !- Construction Name
    Basement,                !- Zone Name
    ,                        !- Space Name
    OtherSideConditionsModel,!- Outside Boundary Condition
    BasementWallOSCM,        !- Outside Boundary Condition Object
    NoSun,                   !- Sun Exposure
    NoWind,                  !- Wind Exposure
    autocalculate,           !- View Factor to Ground
    4,                       !- Number of Vertices
    15,0,0,  !- X,Y,Z ==> Vertex 1 {m}
    15,0,-3.1,  !- X,Y,Z ==> Vertex 2 {m}
    15,10,-3.1,  !- X,Y,Z ==> Vertex 3 {m}
    15,10,0;  !- X,Y,Z ==> Vertex 4 {m}

  BuildingSurface:Detailed,
    Basement Wall 4,         !- Name
    Wall,                    !- Surface Type
    Basement Wall/Floor Construction,  !- Construction Name
    Basement,                !- Zone Name
    ,                        !- Space Name
    OtherSideConditionsModel,!- Outside Boundary Condition
    BasementWallOSCM,        !- Outside Boundary Condition Object
    NoSun,                   !- Sun Exposure
    NoWind,                  !- Wind Exposure
    autocalculate,           !- View Factor to Ground
    4,                       !- Number of Vertices
    0,10,0,  !- X,Y,Z ==> Vertex 1 {m}
    0,10,-3.1,  !- X,Y,Z ==> Vertex 2 {m}
    0,0,-3.1,  !- X,Y,Z ==> Vertex 3 {m}
    0,0,0;  !- X,Y,Z ==> Vertex 4 {m}

  BuildingSurface:Detailed,
    Basement Floor,          !- Name
    Floor,                   !- Surface Type
    Basement Wall/Floor Construction,  !- Construction Name
    Basement,                !- Zone Name
    ,                        !- Space Name
    OtherSideConditionsModel,!- Outside Boundary Condition
    BasementFloorOSCM,       !- Outside Boundary Condition Object
    NoSun,                   !- Sun Exposure
    NoWind,                  !- Wind Exposure
    autocalculate,           !- View Factor to Ground
    4,                       !- Number of Vertices
    0,10,-3.1,  !- X,Y,Z ==> Vertex 1 {m}
    15,10,-3.1,  !- X,Y,Z ==> Vertex 2 {m}
    15,0,-3.1,  !- X,Y,Z ==> Vertex 3 {m}
    0,0,-3.1;  !- X,Y,Z ==> Vertex 4 {m}

  BuildingSurface:Detailed,
    Basement Ceiling,        !- Name
    Ceiling,                 !- Surface Type
    Ceiling Construction,    !- Construction Name
    Basement,                !- Zone Name
    ,                        !- Space Name
    Zone,                    !- Outside Boundary Condition
    Main Floor,              !- Outside Boundary Condition Object
    NoSun,                   !- Sun Exposure
    NoWind,                  !- Wind Exposure
    autocalculate,           !- View Factor to Ground
    4,                       !- Number of Vertices
    0,10,0,  !- X,Y,Z ==> Vertex 1 {m}
    0,0,0,  !- X,Y,Z ==> Vertex 2 {m}
    15,0,0,  !- X,Y,Z ==> Vertex 3 {m}
    15,10,0;  !- X,Y,Z ==> Vertex 4 {m}

  SurfaceProperty:OtherSideConditionsModel,
    BasementWallOSCM,        !- Name
    UndergroundPipingSystemSurface;  !- Type of Modeling

  SurfaceProperty:OtherSideConditionsModel,
    BasementFloorOSCM,       !- Name
    UndergroundPipingSystemSurface;  !- Type of Modeling

!***********************************************************
!****** ABOVE GROUND ZONE SPECIFICATION ********************
!***********************************************************

  Zone,
    Main Floor,              !- Name
    0,                       !- Direction of Relative North {deg}
    0,                       !- X Origin {m}
    0,                       !- Y Origin {m}
    0,                       !- Z Origin {m}
    ,                        !- Type
    ,                        !- Multiplier
    autocalculate,           !- Ceiling Height {m}
    autocalculate,           !- Volume {m3}
    autocalculate,           !- Floor Area {m2}
    Simple,                  !- Zone Inside Convection Algorithm
    SimpleCombined,          !- Zone Outside Convection Algorithm
    Yes;                     !- Part of Total Floor Area

  BuildingSurface:Detailed,
    Main Floor Wall 1,       !- Name
    Wall,                    !- Surface Type
    Main Floor Wall Construction,  !- Construction Name
    Main Floor,              !- Zone Name
    ,                        !- Space Name
    Outdoors,                !- Outside Boundary Condition
    ,                        !- Outside Boundary Condition Object
    SunExposed,              !- Sun Exposure
    WindExposed,             !- Wind Exposure
    autocalculate,           !- View Factor to Ground
    4,                       !- Number of Vertices
    0,0,3.1,  !- X,Y,Z ==> Vertex 1 {m}
    0,0,0,  !- X,Y,Z ==> Vertex 2 {m}
    15,0,0,  !- X,Y,Z ==> Vertex 3 {m}
    15,0,3.1;  !- X,Y,Z ==> Vertex 4 {m}

  BuildingSurface:Detailed,
    Main Floor Wall 2,       !- Name
    Wall,                    !- Surface Type
    Main Floor Wall Construction,  !- Construction Name
    Main Floor,              !- Zone Name
    ,                        !- Space Name
    Outdoors,                !- Outside Boundary Condition
    ,                        !- Outside Boundary Condition Object
    SunExposed,              !- Sun Exposure
    WindExposed,             !- Wind Exposure
    autocalculate,           !- View Factor to Ground
    4,                       !- Number of Vertices
    15,10,3.1,  !- X,Y,Z ==> Vertex 1 {m}
    15,10,0,  !- X,Y,Z ==> Vertex 2 {m}
    0,10,0,  !- X,Y,Z ==> Vertex 3 {m}
    0,10,3.1;  !- X,Y,Z ==> Vertex 4 {m}

  BuildingSurface:Detailed,
    Main Floor Wall 3,       !- Name
    Wall,                    !- Surface Type
    Main Floor Wall Construction,  !- Construction Name
    Main Floor,              !- Zone Name
    ,                        !- Space Name
    Outdoors,                !- Outside Boundary Condition
    ,                        !- Outside Boundary Condition Object
    SunExposed,              !- Sun Exposure
    WindExposed,             !- Wind Exposure
    autocalculate,           !- View Factor to Ground
    4,                       !- Number of Vertices
    15,0,3.1,  !- X,Y,Z ==> Vertex 1 {m}
    15,0,0,  !- X,Y,Z ==> Vertex 2 {m}
    15,10,0,  !- X,Y,Z ==> Vertex 3 {m}
    15,10,3.1;  !- X,Y,Z ==> Vertex 4 {m}

  BuildingSurface:Detailed,
    Main Floor Wall 4,       !- Name
    Wall,                    !- Surface Type
    Main Floor Wall Construction,  !- Construction Name
    Main Floor,              !- Zone Name
    ,                        !- Space Name
    Outdoors,                !- Outside Boundary Condition
    ,                        !- Outside Boundary Condition Object
    SunExposed,              !- Sun Exposure
    WindExposed,             !- Wind Exposure
    autocalculate,           !- View Factor to Ground
    4,                       !- Number of Vertices
    0,10,3.1,  !- X,Y,Z ==> Vertex 1 {m}
    0,10,0,  !- X,Y,Z ==> Vertex 2 {m}
    0,0,0,  !- X,Y,Z ==> Vertex 3 {m}
    0,0,3.1;  !- X,Y,Z ==> Vertex 4 {m}

  BuildingSurface:Detailed,
    Main Floor Roof,         !- Name
    Roof,                    !- Surface Type
    Roof Construction,       !- Construction Name
    Main Floor,              !- Zone Name
    ,                        !- Space Name
    Outdoors,                !- Outside Boundary Condition
    ,                        !- Outside Boundary Condition Object
    SunExposed,              !- Sun Exposure
    WindExposed,             !- Wind Exposure
    autocalculate,           !- View Factor to Ground
    4,                       !- Number of Vertices
    0,10,3.1,  !- X,Y,Z ==> Vertex 1 {m}
    0,0,3.1,  !- X,Y,Z ==> Vertex 2 {m}
    15,0,3.1,  !- X,Y,Z ==> Vertex 3 {m}
    15,10,3.1;  !- X,Y,Z ==> Vertex 4 {m}

!***********************************************************
!****** ABOVE-GROUND MATERIALS/CONSTRUCTIONS ***************
!***********************************************************
! ASHRAE 1145-RP Wall Assembly 2
! 2"x6" wood studs at 24" on center with between-stud R19 fibreglass insulation.
! Layers are 1/2" wood siding, 1/2" plywood, 2x6 wood studs and R19 insulation, 1/2" gypsum board.
! Area-average R-Value = 17.487 ft2-F-h/Btu (3.078 m2-K/W).
! Total wall thickness = 7.00in (0.178m)
! Material layer names follow:

  Construction,
    Main Floor Wall Construction,  !- Name
    Composite 2x6 Wood Stud R19 #3,  !- Outside Layer
    Composite 2x6 Wood Stud R19 #2,  !- Layer 2
    Composite 2x6 Wood Stud R19 #1;  !- Layer 3

  Material,
    Composite 2x6 Wood Stud R19 #1,  !- Name
    Smooth,                  !- Roughness
    0.019,                   !- Thickness {m}
    0.137,                   !- Conductivity {W/m-K}
    640.0,                   !- Density {kg/m3}
    1006,                    !- Specific Heat {J/kg-K}
    0.9,                     !- Thermal Absorptance
    0.7,                     !- Solar Absorptance
    0.7;                     !- Visible Absorptance

  Material,
    Composite 2x6 Wood Stud R19 #2,  !- Name
    Smooth,                  !- Roughness
    0.133,                   !- Thickness {m}
    0.047,                   !- Conductivity {W/m-K}
    93.84,                   !- Density {kg/m3}
    1006,                    !- Specific Heat {J/kg-K}
    0.9,                     !- Thermal Absorptance
    0.7,                     !- Solar Absorptance
    0.7;                     !- Visible Absorptance

  Material,
    Composite 2x6 Wood Stud R19 #3,  !- Name
    Smooth,                  !- Roughness
    0.025,                   !- Thickness {m}
    0.246,                   !- Conductivity {W/m-K}
    492.67,                  !- Density {kg/m3}
    1006,                    !- Specific Heat {J/kg-K}
    0.9,                     !- Thermal Absorptance
    0.7,                     !- Solar Absorptance
    0.7;                     !- Visible Absorptance

!***********************************************************
!****** BASEMENT SURFACE MATERIALS/CONSTRUCTIONS ***********
!***********************************************************

  Material,
    Basement Wall/Floor Material,  !- Name
    MediumRough,             !- Roughness
    0.1524,                  !- Thickness {m}
    1.802,                   !- Conductivity {W/m-K}
    2243,                    !- Density {kg/m3}
    837,                     !- Specific Heat {J/kg-K}
    0.9,                     !- Thermal Absorptance
    0.65,                    !- Solar Absorptance
    0.65;                    !- Visible Absorptance

  Construction,
    Basement Wall/Floor Construction,  !- Name
    Basement Wall/Floor Material;  !- Outside Layer

!***********************************************************
!****** ROOF MATERIALS/CONSTRUCTIONS ***********************
!***********************************************************

  Construction,
    Roof Construction,       !- Name
    Roof Layer 1;            !- Outside Layer

  Material:NoMass,
    Roof Layer 1,            !- Name
    Rough,                   !- Roughness
    3.344,                   !- Thermal Resistance {m2-K/W}
    0.9000000,               !- Thermal Absorptance
    0.7500000,               !- Solar Absorptance