!-Generator IDFEditor 1.50
!-Option SortedOrder
!-NOTE: All comments with '!-' are ignored by the IDFEditor and are generated automatically.
!-      Use '!' comments if they need to be retained when using the IDFEditor.
!-   ===========  ALL OBJECTS IN CLASS: VERSION ===========

  Version,23.1;

!-   ===========  ALL OBJECTS IN CLASS: SIMULATIONCONTROL ===========

  SimulationControl,
    Yes,                     !- Do Zone Sizing Calculation
    No,                      !- Do System Sizing Calculation
    Yes,                     !- Do Plant Sizing Calculation
    No,                      !- Run Simulation for Sizing Periods
    Yes,                     !- Run Simulation for Weather File Run Periods
    No,                      !- Do HVAC Sizing Simulation for Sizing Periods
    1;                       !- Maximum Number of HVAC Sizing Simulation Passes

!-   ===========  ALL OBJECTS IN CLASS: BUILDING ===========

  Building,
    Chicago Ohare Intl Ap IL 3016 sqft,  !- Name
    180,                     !- North Axis {deg}
    City,                    !- Terrain
    0.05,                    !- Loads Convergence Tolerance Value {W}
    0.05,                    !- Temperature Convergence Tolerance Value {deltaC}
    FullExterior,            !- Solar Distribution
    50,                      !- Maximum Number of Warmup Days
    ;                        !- Minimum Number of Warmup Days

!-   ===========  ALL OBJECTS IN CLASS: SHADOWCALCULATION ===========

  ShadowCalculation,
    PolygonClipping,         !- Shading Calculation Method
    Periodic,                !- Shading Calculation Update Frequency Method
    20,                      !- Shading Calculation Update Frequency
    200;                     !- Maximum Figures in Shadow Overlap Calculations

!-   ===========  ALL OBJECTS IN CLASS: SURFACECONVECTIONALGORITHM:INSIDE ===========

  SurfaceConvectionAlgorithm:Inside,TARP;

!-   ===========  ALL OBJECTS IN CLASS: SURFACECONVECTIONALGORITHM:OUTSIDE ===========

  SurfaceConvectionAlgorithm:Outside,DOE-2;

!-   ===========  ALL OBJECTS IN CLASS: HEATBALANCEALGORITHM ===========

  HeatBalanceAlgorithm,ConductionTransferFunction,200;

!-   ===========  ALL OBJECTS IN CLASS: ZONECAPACITANCEMULTIPLIER:RESEARCHSPECIAL ===========

  ZoneCapacitanceMultiplier:ResearchSpecial,
    Multiplier,              !- Name
    ,                        !- Zone or ZoneList Name
    1,                       !- Temperature Capacity Multiplier
    15,                      !- Humidity Capacity Multiplier
    1,                       !- Carbon Dioxide Capacity Multiplier
    ;                        !- Generic Contaminant Capacity Multiplier

!-   ===========  ALL OBJECTS IN CLASS: TIMESTEP ===========

  Timestep,6;

!-   ===========  ALL OBJECTS IN CLASS: CONVERGENCELIMITS ===========

  ConvergenceLimits,
    2,                       !- Minimum System Timestep {minutes}
    20;                      !- Maximum HVAC Iterations

!-   ===========  ALL OBJECTS IN CLASS: SITE:LOCATION ===========

  Site:Location,
    Chicago Ohare Intl Ap IL,!- Name
    41.98,                   !- Latitude {deg}
    -87.92,                  !- Longitude {deg}
    -7,                      !- Time Zone {hr}
    200.99999424;            !- Elevation {m}

!-   ===========  ALL OBJECTS IN CLASS: SIZINGPERIOD:WEATHERFILEDAYS ===========

  SizingPeriod:WeatherFileDays,
    Plant DD,                !- Name
    1,                       !- Begin Month
    1,                       !- Begin Day of Month
    1,                       !- End Month
    1,                       !- End Day of Month
    Tuesday,                 !- Day of Week for Start Day
    Yes,                     !- Use Weather File Daylight Saving Period
    No;                      !- Use Weather File Rain and Snow Indicators

!-   ===========  ALL OBJECTS IN CLASS: RUNPERIOD ===========

  RunPeriod,
    Chicago Ohare Intl Ap IL TMY3,  !- Name
    1,                       !- Begin Month
    1,                       !- Begin Day of Month
    ,                        !- Begin Year
    12,                      !- End Month
    31,                      !- End Day of Month
    ,                        !- End Year
    Tuesday,                 !- Day of Week for Start Day
    No,                      !- Use Weather File Holidays and Special Days
    Yes,                     !- Use Weather File Daylight Saving Period
    No,                      !- Apply Weekend Holiday Rule
    Yes,                     !- Use Weather File Rain Indicators
    Yes,                     !- Use Weather File Snow Indicators
    ;                        !- Treat Weather as Actual

!-   ===========  ALL OBJECTS IN CLASS: RUNPERIODCONTROL:SPECIALDAYS ===========

  RunPeriodControl:SpecialDays,
    MayVacationWeekdays,     !- Name
    5/27,                    !- Start Date
    2,                       !- Duration {days}
    CustomDay1;              !- Special Day Type

  RunPeriodControl:SpecialDays,
    AugVacationWeekdays,     !- Name
    8/12,                    !- Start Date
    5,                       !- Duration {days}
    CustomDay1;              !- Special Day Type

  RunPeriodControl:SpecialDays,
    DecVacationWeekdays,     !- Name
    12/23,                   !- Start Date
    3,                       !- Duration {days}
    CustomDay1;              !- Special Day Type

  RunPeriodControl:SpecialDays,
    MayVacationWeekends,     !- Name
    5/26,                    !- Start Date
    1,                       !- Duration {days}
    CustomDay2;              !- Special Day Type

  RunPeriodControl:SpecialDays,
    AugVacationWeekends,     !- Name
    8/17,                    !- Start Date
    2,                       !- Duration {days}
    CustomDay2;              !- Special Day Type

  RunPeriodControl:SpecialDays,
    DecVacationWeekends,     !- Name
    12/22,                   !- Start Date
    1,                       !- Duration {days}
    CustomDay2;              !- Special Day Type

!-   ===========  ALL OBJECTS IN CLASS: RUNPERIODCONTROL:DAYLIGHTSAVINGTIME ===========

  RunPeriodControl:DaylightSavingTime,
    April 7,                 !- Start Date
    October 26;              !- End Date

!-   ===========  ALL OBJECTS IN CLASS: SITE:GROUNDTEMPERATURE:BUILDINGSURFACE ===========

  Site:GroundTemperature:BuildingSurface,4.770437602061892,2.569442925109355,2.393179378142507,3.4376638152619736,7.6306867978143105,11.80417690053992,15.422369770559403,17.714405966076626,17.909127030145775,16.044940823799056,12.519013996259565,8.473549570961564;

!-   ===========  ALL OBJECTS IN CLASS: SITE:GROUNDTEMPERATURE:DEEP ===========

  Site:GroundTemperature:Deep,9.988888888888887,9.988888888888887,9.988888888888887,9.988888888888887,9.988888888888887,9.988888888888887,9.988888888888887,9.988888888888887,9.988888888888887,9.988888888888887,9.988888888888887,9.988888888888887;

!-   ===========  ALL OBJECTS IN CLASS: SITE:WATERMAINSTEMPERATURE ===========

  Site:WaterMainsTemperature,
    Correlation,             !- Calculation Method
    ,                        !- Temperature Schedule Name
    9.988888888888887,       !- Annual Average Outdoor Air Temperature {C}
    28.777777777777775;      !- Maximum Difference In Monthly Average Outdoor Air Temperatures {deltaC}

!-   ===========  ALL OBJECTS IN CLASS: SCHEDULETYPELIMITS ===========

  ScheduleTypeLimits,
    Multiplier,              !- Name
    ,                        !- Lower Limit Value
    ,                        !- Upper Limit Value
    Continuous;              !- Numeric Type

  ScheduleTypeLimits,
    Fraction,                !- Name
    0,                       !- Lower Limit Value
    1,                       !- Upper Limit Value
    Continuous;              !- Numeric Type

  ScheduleTypeLimits,
    On/Off,                  !- Name
    0,                       !- Lower Limit Value
    1,                       !- Upper Limit Value
    Discrete;                !- Numeric Type

  ScheduleTypeLimits,
    Temperature,             !- Name
    -60,                     !- Lower Limit Value
    200,                     !- Upper Limit Value
    Continuous;              !- Numeric Type

  ScheduleTypeLimits,
    Month,                   !- Name
    1,                       !- Lower Limit Value
    12,                      !- Upper Limit Value
    Discrete;                !- Numeric Type

  ScheduleTypeLimits,
    RelativeHumidity,        !- Name
    0,                       !- Lower Limit Value
    100,                     !- Upper Limit Value
    Continuous;              !- Numeric Type

!-   ===========  ALL OBJECTS IN CLASS: SCHEDULE:DAY:HOURLY ===========

  Schedule:Day:Hourly,
    BathExhaustDay_1,        !- Name
    FRACTION,                !- Schedule Type Limits Name
    0,                       !- Hour 1
    0,                       !- Hour 2
    0,                       !- Hour 3
    0,                       !- Hour 4
    0,                       !- Hour 5
    0,                       !- Hour 6
    1,                       !- Hour 7
    0,                       !- Hour 8
    0,                       !- Hour 9
    0,                       !- Hour 10
    0,                       !- Hour 11
    0,                       !- Hour 12
    0,                       !- Hour 13
    0,                       !- Hour 14
    0,                       !- Hour 15
    0,                       !- Hour 16
    0,                       !- Hour 17
    0,                       !- Hour 18
    0,                       !- Hour 19
    0,                       !- Hour 20
    0,                       !- Hour 21
    0,                       !- Hour 22
    0,                       !- Hour 23
    0;                       !- Hour 24

  Schedule:Day:Hourly,
    CeilingFanWeekday_1,     !- Name
    ON/OFF,                  !- Schedule Type Limits Name
    1,                       !- Hour 1
    1,                       !- Hour 2
    1,                       !- Hour 3
    1,                       !- Hour 4
    1,                       !- Hour 5
    1,                       !- Hour 6
    1,                       !- Hour 7
    1,                       !- Hour 8
    1,                       !- Hour 9
    1,                       !- Hour 10
    1,                       !- Hour 11
    1,                       !- Hour 12
    1,                       !- Hour 13
    1,                       !- Hour 14
    1,                       !- Hour 15
    1,                       !- Hour 16
    1,                       !- Hour 17
    1,                       !- Hour 18
    1,                       !- Hour 19
    1,                       !- Hour 20
    1,                       !- Hour 21
    1,                       !- Hour 22
    1,                       !- Hour 23
    1;                       !- Hour 24

  Schedule:Day:Hourly,
    CeilingFanWeekend_1,     !- Name
    ON/OFF,                  !- Schedule Type Limits Name
    1,                       !- Hour 1
    1,                       !- Hour 2
    1,                       !- Hour 3
    1,                       !- Hour 4
    1,                       !- Hour 5
    1,                       !- Hour 6
    1,                       !- Hour 7
    1,                       !- Hour 8
    1,                       !- Hour 9
    1,                       !- Hour 10
    1,                       !- Hour 11
    1,                       !- Hour 12
    1,                       !- Hour 13
    1,                       !- Hour 14
    1,                       !- Hour 15
    1,                       !- Hour 16
    1,                       !- Hour 17
    1,                       !- Hour 18
    1,                       !- Hour 19
    1,                       !- Hour 20
    1,                       !- Hour 21
    1,                       !- Hour 22
    1,                       !- Hour 23
    1;                       !- Hour 24

  Schedule:Day:Hourly,
    ClothesDryerDayMult0_1,  !- Name
    FRACTION,                !- Schedule Type Limits Name
    0.1009125067096082,      !- Hour 1
    0.0605475040257649,      !- Hour 2
    0.0403650026838433,      !- Hour 3
    0.0201825013419216,      !- Hour 4
    0.0403650026838433,      !- Hour 5
    0.0605475040257649,      !- Hour 6
    0.1614600107353731,      !- Hour 7
    0.3229200214707462,      !- Hour 8
    0.4843800322061192,      !- Hour 9
    0.6862050456253357,      !- Hour 10
    0.7871175523349436,      !- Hour 11
    0.8173913043478261,      !- Hour 12
    0.7467525496511005,      !- Hour 13
    0.6761137949543747,      !- Hour 14
    0.5752012882447666,      !- Hour 15
    0.6155662909286099,      !- Hour 16
    0.5550187869028449,      !- Hour 17
    0.5449275362318841,      !- Hour 18
    0.5146537842190015,      !- Hour 19
    0.5146537842190015,      !- Hour 20
    0.5247450348899624,      !- Hour 21
    0.5449275362318841,      !- Hour 22
    0.4440150295222759,      !- Hour 23
    0.2421900161030596;      !- Hour 24

  Schedule:Day:Hourly,
    ClothesDryerDayMult1_1,  !- Name
    FRACTION,                !- Schedule Type Limits Name
    0,                       !- Hour 1
    0,                       !- Hour 2
    0,                       !- Hour 3
    0,                       !- Hour 4
    0,                       !- Hour 5
    0,                       !- Hour 6
    0,                       !- Hour 7
    0,                       !- Hour 8
    0,                       !- Hour 9
    0,                       !- Hour 10
    0,                       !- Hour 11
    0,                       !- Hour 12
    0,                       !- Hour 13
    0,                       !- Hour 14
    0,                       !- Hour 15
    0,                       !- Hour 16
    0,                       !- Hour 17
    0,                       !- Hour 18
    0,                       !- Hour 19
    0,                       !- Hour 20
    0,                       !- Hour 21
    0,                       !- Hour 22
    0,                       !- Hour 23
    0;                       !- Hour 24

  Schedule:Day:Hourly,
    ClothesDryerDayMult2_1,  !- Name
    FRACTION,                !- Schedule Type Limits Name
    0.1234567901234568,      !- Hour 1
    0.0740740740740741,      !- Hour 2
    0.0493827160493827,      !- Hour 3
    0.0246913580246914,      !- Hour 4
    0.0493827160493827,      !- Hour 5
    0.0740740740740741,      !- Hour 6
    0.1975308641975309,      !- Hour 7
    0.3950617283950618,      !- Hour 8
    0.5925925925925926,      !- Hour 9
    0.8395061728395063,      !- Hour 10
    0.9629629629629629,      !- Hour 11
    1,                       !- Hour 12
    0.9135802469135804,      !- Hour 13
    0.8271604938271605,      !- Hour 14
    0.7037037037037038,      !- Hour 15
    0.7530864197530865,      !- Hour 16
    0.6790123456790124,      !- Hour 17
    0.6666666666666666,      !- Hour 18
    0.6296296296296295,      !- Hour 19
    0.6296296296296295,      !- Hour 20
    0.6419753086419752,      !- Hour 21
    0.6666666666666666,      !- Hour 22
    0.5432098765432098,      !- Hour 23
    0.2962962962962963;      !- Hour 24

  Schedule:Day:Hourly,
    ClothesDryerExhaustDay_1,!- Name
    FRACTION,                !- Schedule Type Limits Name
    0,                       !- Hour 1
    0,                       !- Hour 2
    0,                       !- Hour 3
    0,                       !- Hour 4
    0,                       !- Hour 5
    0,                       !- Hour 6
    0,                       !- Hour 7
    0,                       !- Hour 8
    0,                       !- Hour 9
    0,                       !- Hour 10
    1,                       !- Hour 11
    0,                       !- Hour 12
    0,                       !- Hour 13
    0,                       !- Hour 14
    0,                       !- Hour 15
    0,                       !- Hour 16
    0,                       !- Hour 17
    0,                       !- Hour 18
    0,                       !- Hour 19
    0,                       !- Hour 20
    0,                       !- Hour 21
    0,                       !- Hour 22
    0,                       !- Hour 23
    0;                       !- Hour 24

  Schedule:Day:Hourly,
    CookingRangeWkDay01_1,   !- Name
    FRACTION,                !- Schedule Type Limits Name
    0.0466666666666667,      !- Hour 1
    0.0466666666666667,      !- Hour 2
    0.0266666666666667,      !- Hour 3
    0.0266666666666667,      !- Hour 4
    0.0466666666666667,      !- Hour 5
    0.0733333333333333,      !- Hour 6
    0.1666666666666667,      !- Hour 7
    0.28,                    !- Hour 8
    0.3066666666666667,      !- Hour 9
    0.32,                    !- Hour 10
    0.28,                    !- Hour 11
    0.3333333333333333,      !- Hour 12
    0.38,                    !- Hour 13
    0.3066666666666667,      !- Hour 14
    0.38,                    !- Hour 15
    0.2933333333333333,      !- Hour 16
    0.6133333333333334,      !- Hour 17
    1,                       !- Hour 18
    0.78,                    !- Hour 19
    0.4,                     !- Hour 20
    0.2333333333333333,      !- Hour 21
    0.1666666666666667,      !- Hour 22
    0.1066666666666667,      !- Hour 23
    0.0733333333333333;      !- Hour 24

  Schedule:Day:Hourly,
    CookingRangeWkDay02_1,   !- Name
    FRACTION,                !- Schedule Type Limits Name
    0.0466666666666667,      !- Hour 1
    0.0466666666666667,      !- Hour 2
    0.0266666666666667,      !- Hour 3
    0.0266666666666667,      !- Hour 4
    0.0466666666666667,      !- Hour 5
    0.0733333333333333,      !- Hour 6
    0.1666666666666667,      !- Hour 7
    0.28,                    !- Hour 8
    0.3066666666666667,      !- Hour 9
    0.32,                    !- Hour 10
    0.28,                    !- Hour 11
    0.3333333333333333,      !- Hour 12
    0.38,                    !- Hour 13
    0.3066666666666667,      !- Hour 14
    0.38,                    !- Hour 15
    0.2933333333333333,      !- Hour 16
    0.6133333333333334,      !- Hour 17
    1,                       !- Hour 18
    0.78,                    !- Hour 19
    0.4,                     !- Hour 20
    0.2333333333333333,      !- Hour 21
    0.1666666666666667,      !- Hour 22
    0.1066666666666667,      !- Hour 23
    0.0733333333333333;      !- Hour 24

  Schedule:Day:Hourly,
    CookingRangeWkDay03_1,   !- Name
    FRACTION,                !- Schedule Type Limits Name
    0.0421573989668794,      !- Hour 1
    0.0421573989668794,      !- Hour 2
    0.0240899422667882,      !- Hour 3
    0.0240899422667882,      !- Hour 4
    0.0421573989668794,      !- Hour 5
    0.0662473412336676,      !- Hour 6
    0.1505621391674263,      !- Hour 7
    0.2529443938012763,      !- Hour 8
    0.2770343360680644,      !- Hour 9
    0.2890793072014585,      !- Hour 10
    0.2529443938012763,      !- Hour 11
    0.3011242783348526,      !- Hour 12
    0.343281677301732,       !- Hour 13
    0.2770343360680644,      !- Hour 14
    0.343281677301732,       !- Hour 15
    0.2649893649346703,      !- Hour 16
    0.5540686721361289,      !- Hour 17
    0.9033728350045579,      !- Hour 18
    0.7046308113035552,      !- Hour 19
    0.3613491340018232,      !- Hour 20
    0.2107869948343969,      !- Hour 21
    0.1505621391674263,      !- Hour 22
    0.0963597690671529,      !- Hour 23
    0.0662473412336676;      !- Hour 24

  Schedule:Day:Hourly,
    CookingRangeWkDay04_1,   !- Name
    FRACTION,                !- Schedule Type Limits Name
    0.0419872379216044,      !- Hour 1
    0.0419872379216044,      !- Hour 2
    0.0239927073837739,      !- Hour 3
    0.0239927073837739,      !- Hour 4
    0.0419872379216044,      !- Hour 5
    0.0659799453053783,      !- Hour 6
    0.1499544211485871,      !- Hour 7
    0.2519234275296263,      !- Hour 8
    0.2759161349134002,      !- Hour 9
    0.2879124886052871,      !- Hour 10
    0.2519234275296263,      !- Hour 11
    0.2999088422971741,      !- Hour 12
    0.3418960802187785,      !- Hour 13
    0.2759161349134002,      !- Hour 14
    0.3418960802187785,      !- Hour 15
    0.2639197812215132,      !- Hour 16
    0.5518322698268004,      !- Hour 17
    0.8997265268915223,      !- Hour 18
    0.7017866909753875,      !- Hour 19
    0.3598906107566089,      !- Hour 20
    0.2099361896080219,      !- Hour 21
    0.1499544211485871,      !- Hour 22
    0.0959708295350957,      !- Hour 23
    0.0659799453053783;      !- Hour 24

  Schedule:Day:Hourly,
    CookingRangeWkDay05_1,   !- Name
    FRACTION,                !- Schedule Type Limits Name
    0.0421573989668794,      !- Hour 1
    0.0421573989668794,      !- Hour 2
    0.0240899422667882,      !- Hour 3
    0.0240899422667882,      !- Hour 4
    0.0421573989668794,      !- Hour 5
    0.0662473412336676,      !- Hour 6
    0.1505621391674263,      !- Hour 7
    0.2529443938012763,      !- Hour 8
    0.2770343360680644,      !- Hour 9
    0.2890793072014585,      !- Hour 10
    0.2529443938012763,      !- Hour 11
    0.3011242783348526,      !- Hour 12
    0.343281677301732,       !- Hour 13
    0.2770343360680644,      !- Hour 14
    0.343281677301732,       !- Hour 15
    0.2649893649346703,      !- Hour 16
    0.5540686721361289,      !- Hour 17
    0.9033728350045579,      !- Hour 18
    0.7046308113035552,      !- Hour 19
    0.3613491340018232,      !- Hour 20
    0.2107869948343969,      !- Hour 21
    0.1505621391674263,      !- Hour 22
    0.0963597690671529,      !- Hour 23
    0.0662473412336676;      !- Hour 24

  Schedule:Day:Hourly,
    CookingRangeWkDay06_1,   !- Name
    FRACTION,                !- Schedule Type Limits Name
    0.0378608325736858,      !- Hour 1
    0.0378608325736858,      !- Hour 2
    0.0216347614706776,      !- Hour 3
    0.0216347614706776,      !- Hour 4
    0.0378608325736858,      !- Hour 5
    0.0594955940443634,      !- Hour 6
    0.1352172591917351,      !- Hour 7
    0.2271649954421149,      !- Hour 8
    0.2487997569127925,      !- Hour 9
    0.2596171376481313,      !- Hour 10
    0.2271649954421149,      !- Hour 11
    0.2704345183834701,      !- Hour 12
    0.3082953509571559,      !- Hour 13
    0.2487997569127925,      !- Hour 14
    0.3082953509571559,      !- Hour 15
    0.2379823761774537,      !- Hour 16
    0.497599513825585,       !- Hour 17
    0.8113035551504103,      !- Hour 18
    0.6328167730173201,      !- Hour 19
    0.3245214220601641,      !- Hour 20
    0.1893041628684291,      !- Hour 21
    0.1352172591917351,      !- Hour 22
    0.0865390458827104,      !- Hour 23
    0.0594955940443634;      !- Hour 24

  Schedule:Day:Hourly,
    CookingRangeWkDay07_1,   !- Name
    FRACTION,                !- Schedule Type Limits Name
    0.0381160741415983,      !- Hour 1
    0.0381160741415983,      !- Hour 2
    0.021780613795199,       !- Hour 3
    0.021780613795199,       !- Hour 4
    0.0381160741415983,      !- Hour 5
    0.0598966879367973,      !- Hour 6
    0.1361288362199939,      !- Hour 7
    0.2286964448495898,      !- Hour 8
    0.2504770586447889,      !- Hour 9
    0.2613673655423883,      !- Hour 10
    0.2286964448495898,      !- Hour 11
    0.2722576724399879,      !- Hour 12
    0.3103737465815862,      !- Hour 13
    0.2504770586447889,      !- Hour 14
    0.3103737465815862,      !- Hour 15
    0.2395867517471894,      !- Hour 16
    0.5009541172895777,      !- Hour 17
    0.8167730173199637,      !- Hour 18
    0.6370829535095717,      !- Hour 19
    0.3267092069279854,      !- Hour 20
    0.1905803707079915,      !- Hour 21
    0.1361288362199939,      !- Hour 22
    0.0871224551807961,      !- Hour 23
    0.0598966879367973;      !- Hour 24

  Schedule:Day:Hourly,
    CookingRangeWkDay08_1,   !- Name
    FRACTION,                !- Schedule Type Limits Name
    0.0381160741415983,      !- Hour 1
    0.0381160741415983,      !- Hour 2
    0.021780613795199,       !- Hour 3
    0.021780613795199,       !- Hour 4
    0.0381160741415983,      !- Hour 5
    0.0598966879367973,      !- Hour 6
    0.1361288362199939,      !- Hour 7
    0.2286964448495898,      !- Hour 8
    0.2504770586447889,      !- Hour 9
    0.2613673655423883,      !- Hour 10
    0.2286964448495898,      !- Hour 11
    0.2722576724399879,      !- Hour 12
    0.3103737465815862,      !- Hour 13
    0.2504770586447889,      !- Hour 14
    0.3103737465815862,      !- Hour 15
    0.2395867517471894,      !- Hour 16
    0.5009541172895777,      !- Hour 17
    0.8167730173199637,      !- Hour 18
    0.6370829535095717,      !- Hour 19
    0.3267092069279854,      !- Hour 20
    0.1905803707079915,      !- Hour 21
    0.1361288362199939,      !- Hour 22
    0.0871224551807961,      !- Hour 23
    0.0598966879367973;      !- Hour 24

  Schedule:Day:Hourly,
    CookingRangeWkDay09_1,   !- Name
    FRACTION,                !- Schedule Type Limits Name
    0.0378608325736858,      !- Hour 1
    0.0378608325736858,      !- Hour 2
    0.0216347614706776,      !- Hour 3
    0.0216347614706776,      !- Hour 4
    0.0378608325736858,      !- Hour 5
    0.0594955940443634,      !- Hour 6
    0.1352172591917351,      !- Hour 7
    0.2271649954421149,      !- Hour 8
    0.2487997569127925,      !- Hour 9
    0.2596171376481313,      !- Hour 10
    0.2271649954421149,      !- Hour 11
    0.2704345183834701,      !- Hour 12
    0.3082953509571559,      !- Hour 13
    0.2487997569127925,      !- Hour 14
    0.3082953509571559,      !- Hour 15
    0.2379823761774537,      !- Hour 16
    0.497599513825585,       !- Hour 17
    0.8113035551504103,      !- Hour 18
    0.6328167730173201,      !- Hour 19
    0.3245214220601641,      !- Hour 20
    0.1893041628684291,      !- Hour 21
    0.1352172591917351,      !- Hour 22
    0.0865390458827104,      !- Hour 23
    0.0594955940443634;      !- Hour 24

  Schedule:Day:Hourly,
    CookingRangeWkDay10_1,   !- Name
    FRACTION,                !- Schedule Type Limits Name
    0.0461561835308417,      !- Hour 1
    0.0461561835308417,      !- Hour 2
    0.0263749620176238,      !- Hour 3
    0.0263749620176238,      !- Hour 4
    0.0461561835308417,      !- Hour 5
    0.0725311455484655,      !- Hour 6
    0.1648435126101489,      !- Hour 7
    0.2769371011850502,      !- Hour 8
    0.303312063202674,       !- Hour 9
    0.3164995442114859,      !- Hour 10
    0.2769371011850502,      !- Hour 11
    0.3296870252202977,      !- Hour 12
    0.3758432087511395,      !- Hour 13
    0.303312063202674,       !- Hour 14
    0.3758432087511395,      !- Hour 15
    0.290124582193862,       !- Hour 16
    0.606624126405348,       !- Hour 17
    0.9890610756608933,      !- Hour 18
    0.7714676390154969,      !- Hour 19
    0.3956244302643573,      !- Hour 20
    0.2307809176542084,      !- Hour 21
    0.1648435126101489,      !- Hour 22
    0.1054998480704953,      !- Hour 23
    0.0725311455484655;      !- Hour 24

  Schedule:Day:Hourly,
    CookingRangeWkDay11_1,   !- Name
    FRACTION,                !- Schedule Type Limits Name
    0.0461561835308417,      !- Hour 1
    0.0461561835308417,      !- Hour 2
    0.0263749620176238,      !- Hour 3
    0.0263749620176238,      !- Hour 4
    0.0461561835308417,      !- Hour 5
    0.0725311455484655,      !- Hour 6
    0.1648435126101489,      !- Hour 7
    0.2769371011850502,      !- Hour 8
    0.303312063202674,       !- Hour 9
    0.3164995442114859,      !- Hour 10
    0.2769371011850502,      !- Hour 11
    0.3296870252202977,      !- Hour 12
    0.3758432087511395,      !- Hour 13
    0.303312063202674,       !- Hour 14
    0.3758432087511395,      !- Hour 15
    0.290124582193862,       !- Hour 16
    0.606624126405348,       !- Hour 17
    0.9890610756608933,      !- Hour 18
    0.7714676390154969,      !- Hour 19
    0.3956244302643573,      !- Hour 20
    0.2307809176542084,      !- Hour 21
    0.1648435126101489,      !- Hour 22
    0.1054998480704953,      !- Hour 23
    0.0725311455484655;      !- Hour 24

  Schedule:Day:Hourly,
    CookingRangeWkDay12_1,   !- Name
    FRACTION,                !- Schedule Type Limits Name
    0.0466666666666667,      !- Hour 1
    0.0466666666666667,      !- Hour 2
    0.0266666666666667,      !- Hour 3
    0.0266666666666667,      !- Hour 4
    0.0466666666666667,      !- Hour 5
    0.0733333333333333,      !- Hour 6
    0.1666666666666667,      !- Hour 7
    0.28,                    !- Hour 8
    0.3066666666666667,      !- Hour 9
    0.32,                    !- Hour 10
    0.28,                    !- Hour 11
    0.3333333333333333,      !- Hour 12
    0.38,                    !- Hour 13
    0.3066666666666667,      !- Hour 14
    0.38,                    !- Hour 15
    0.2933333333333333,      !- Hour 16
    0.6133333333333334,      !- Hour 17
    1,                       !- Hour 18
    0.78,                    !- Hour 19
    0.4,                     !- Hour 20
    0.2333333333333333,      !- Hour 21
    0.1666666666666667,      !- Hour 22
    0.1066666666666667,      !- Hour 23
    0.0733333333333333;      !- Hour 24

  Schedule:Day:Hourly,
    CookingRangeWkEnd01_1,   !- Name
    FRACTION,                !- Schedule Type Limits Name
    0.0466666666666667,      !- Hour 1
    0.0466666666666667,      !- Hour 2
    0.0266666666666667,      !- Hour 3
    0.0266666666666667,      !- Hour 4
    0.0466666666666667,      !- Hour 5
    0.0733333333333333,      !- Hour 6
    0.1666666666666667,      !- Hour 7
    0.28,                    !- Hour 8
    0.3066666666666667,      !- Hour 9
    0.32,                    !- Hour 10
    0.28,                    !- Hour 11
    0.3333333333333333,      !- Hour 12
    0.38,                    !- Hour 13
    0.3066666666666667,      !- Hour 14
    0.38,                    !- Hour 15
    0.2933333333333333,      !- Hour 16
    0.6133333333333334,      !- Hour 17
    1,                       !- Hour 18
    0.78,                    !- Hour 19
    0.4,                     !- Hour 20
    0.2333333333333333,      !- Hour 21
    0.1666666666666667,      !- Hour 22