! PlantComponentTemperatureSource.idf
!
! Basic file description:
! This input file is a plant-only simulation using the PLANT LOAD PROFILE object to impose demands on a loop; no zones are simulated.
! The loop is supplied with fluid from a PlantComponent:TemperatureSource object, which can be used to specify a constant or a scheduled fluid source temperature.
! Run:      2 design days.
! Building: None.
! System:   None.
! Plant:    PLANT LOAD PROFILE with A PlantComponent:TemperatureSource supply object.

  Version,24.1;

  Building,
    Plant Load Profile Example,  !- Name
    0.0,                     !- North Axis {deg}
    Suburbs,                 !- Terrain
    0.04,                    !- Loads Convergence Tolerance Value {W}
    0.04,                    !- Temperature Convergence Tolerance Value {deltaC}
    FullInteriorAndExterior, !- Solar Distribution
    25,                      !- Maximum Number of Warmup Days
    6;                       !- Minimum Number of Warmup Days

  Timestep,6;

  GlobalGeometryRules,
    UpperLeftCorner,         !- Starting Vertex Position
    CounterClockWise,        !- Vertex Entry Direction
    Relative;                !- Coordinate System

  Site:Location,
    CHICAGO_IL_USA_WMO_725300,  !- Name
    42.00,                   !- Latitude {deg}
    -87.88,                  !- Longitude {deg}
    -6.00,                   !- Time Zone {hr}
    190.00;                  !- Elevation {m}

 ! CHICAGO_IL_USA Annual Cooling (DB=>MWB) 1%, MaxDB=31.5°C MWB=23°C

  SizingPeriod:DesignDay,
    CHICAGO Ann Clg 1% Condns DB=>MWB,  !- Name
    7,                       !- Month
    21,                      !- Day of Month
    SummerDesignDay,         !- Day Type
    31.5,                    !- Maximum Dry-Bulb Temperature {C}
    10.7,                    !- Daily Dry-Bulb Temperature Range {deltaC}
    ,                        !- Dry-Bulb Temperature Range Modifier Type
    ,                        !- Dry-Bulb Temperature Range Modifier Day Schedule Name
    Wetbulb,                 !- Humidity Condition Type
    23,                      !- Wetbulb or DewPoint at Maximum Dry-Bulb {C}
    ,                        !- Humidity Condition Day Schedule Name
    ,                        !- Humidity Ratio at Maximum Dry-Bulb {kgWater/kgDryAir}
    ,                        !- Enthalpy at Maximum Dry-Bulb {J/kg}
    ,                        !- Daily Wet-Bulb Temperature Range {deltaC}
    99063.,                  !- Barometric Pressure {Pa}
    5.3,                     !- Wind Speed {m/s}
    230,                     !- Wind Direction {deg}
    No,                      !- Rain Indicator
    No,                      !- Snow Indicator
    No,                      !- Daylight Saving Time Indicator
    ASHRAEClearSky,          !- Solar Model Indicator
    ,                        !- Beam Solar Day Schedule Name
    ,                        !- Diffuse Solar Day Schedule Name
    ,                        !- ASHRAE Clear Sky Optical Depth for Beam Irradiance (taub) {dimensionless}
    ,                        !- ASHRAE Clear Sky Optical Depth for Diffuse Irradiance (taud) {dimensionless}
    1.00;                    !- Sky Clearness

 ! CHICAGO_IL_USA Annual Heating 99%, MaxDB=-17.3°C

  SizingPeriod:DesignDay,
    CHICAGO Ann Htg 99% Condns DB,  !- Name
    1,                       !- Month
    21,                      !- Day of Month
    WinterDesignDay,         !- Day Type
    -17.3,                   !- Maximum Dry-Bulb Temperature {C}
    0.0,                     !- Daily Dry-Bulb Temperature Range {deltaC}
    ,                        !- Dry-Bulb Temperature Range Modifier Type
    ,                        !- Dry-Bulb Temperature Range Modifier Day Schedule Name
    Wetbulb,                 !- Humidity Condition Type
    -17.3,                   !- Wetbulb or DewPoint at Maximum Dry-Bulb {C}
    ,                        !- Humidity Condition Day Schedule Name
    ,                        !- Humidity Ratio at Maximum Dry-Bulb {kgWater/kgDryAir}
    ,                        !- Enthalpy at Maximum Dry-Bulb {J/kg}
    ,                        !- Daily Wet-Bulb Temperature Range {deltaC}
    99063.,                  !- Barometric Pressure {Pa}
    4.9,                     !- Wind Speed {m/s}
    270,                     !- Wind Direction {deg}
    No,                      !- Rain Indicator
    No,                      !- Snow Indicator
    No,                      !- Daylight Saving Time Indicator
    ASHRAEClearSky,          !- Solar Model Indicator
    ,                        !- Beam Solar Day Schedule Name
    ,                        !- Diffuse Solar Day Schedule Name
    ,                        !- ASHRAE Clear Sky Optical Depth for Beam Irradiance (taub) {dimensionless}
    ,                        !- ASHRAE Clear Sky Optical Depth for Diffuse Irradiance (taud) {dimensionless}
    0.00;                    !- Sky Clearness

  RunPeriod,
    Run Period 1,            !- Name
    1,                       !- Begin Month
    1,                       !- Begin Day of Month
    ,                        !- Begin Year
    12,                      !- End Month
    31,                      !- End Day of Month
    ,                        !- End Year
    Tuesday,                 !- Day of Week for Start Day
    Yes,                     !- Use Weather File Holidays and Special Days
    Yes,                     !- Use Weather File Daylight Saving Period
    No,                      !- Apply Weekend Holiday Rule
    Yes,                     !- Use Weather File Rain Indicators
    Yes;                     !- Use Weather File Snow Indicators

  SimulationControl,
    NO,                      !- Do Zone Sizing Calculation
    NO,                      !- Do System Sizing Calculation
    YES,                     !- Do Plant Sizing Calculation
    YES,                     !- Run Simulation for Sizing Periods
    NO,                      !- Run Simulation for Weather File Run Periods
    No,                      !- Do HVAC Sizing Simulation for Sizing Periods
    1;                       !- Maximum Number of HVAC Sizing Simulation Passes

  PlantLoop,
    Main Loop,               !- Name
    WATER,                   !- Fluid Type
    ,                        !- User Defined Fluid Type
    Main Loop Operation,     !- Plant Equipment Operation Scheme Name
    Supply Outlet Node,      !- Loop Temperature Setpoint Node Name
    100,                     !- Maximum Loop Temperature {C}
    3,                       !- Minimum Loop Temperature {C}
    0.003,                   !- Maximum Loop Flow Rate {m3/s}
    0,                       !- Minimum Loop Flow Rate {m3/s}
    autocalculate,           !- Plant Loop Volume {m3}
    Supply Inlet Node,       !- Plant Side Inlet Node Name
    Supply Outlet Node,      !- Plant Side Outlet Node Name
    Supply Branches,         !- Plant Side Branch List Name
    Supply Connectors,       !- Plant Side Connector List Name
    Demand Inlet Node,       !- Demand Side Inlet Node Name
    Demand Outlet Node,      !- Demand Side Outlet Node Name
    Demand Branches,         !- Demand Side Branch List Name
    ,                        !- Demand Side Connector List Name
    OPTIMAL;                 !- Load Distribution Scheme

  SetpointManager:Scheduled,
    Main Loop Setpoint Manager,  !- Name
    Temperature,             !- Control Variable
    Main Loop Temp Sch,      !- Schedule Name
    Main Loop Setpoint Node List;  !- Setpoint Node or NodeList Name

  NodeList,
    Main Loop Setpoint Node List,  !- Name
    Supply Outlet Node;      !- Node 1 Name

  PlantEquipmentOperationSchemes,
    Main Loop Operation,     !- Name
    PlantEquipmentOperation:CoolingLoad,  !- Control Scheme 1 Object Type
    Purchased Only,          !- Control Scheme 1 Name
    AlwaysOnSchedule;        !- Control Scheme 1 Schedule Name

  PlantEquipmentOperation:CoolingLoad,
    Purchased Only,          !- Name
    0,                       !- Load Range 1 Lower Limit {W}
    10000000,                !- Load Range 1 Upper Limit {W}
    Cooling Plant;           !- Range 1 Equipment List Name

  PlantEquipmentList,
    Cooling Plant,           !- Name
    PlantComponent:TemperatureSource,  !- Equipment 1 Object Type
    FluidSource;             !- Equipment 1 Name

  BranchList,
    Supply Branches,         !- Name
    Supply Inlet Branch,     !- Branch 1 Name
    Cooling Branch,          !- Branch 2 Name
    Supply Bypass Branch,    !- Branch 3 Name
    Supply Outlet Branch;    !- Branch 4 Name

  ConnectorList,
    Supply Connectors,       !- Name
    Connector:Splitter,      !- Connector 1 Object Type
    Supply Splitter,         !- Connector 1 Name
    Connector:Mixer,         !- Connector 2 Object Type
    Supply Mixer;            !- Connector 2 Name

  Connector:Splitter,
    Supply Splitter,         !- Name
    Supply Inlet Branch,     !- Inlet Branch Name
    Cooling Branch,          !- Outlet Branch 1 Name
    Supply Bypass Branch;    !- Outlet Branch 2 Name

  Connector:Mixer,
    Supply Mixer,            !- Name
    Supply Outlet Branch,    !- Outlet Branch Name
    Cooling Branch,          !- Inlet Branch 1 Name
    Supply Bypass Branch;    !- Inlet Branch 2 Name

  Branch,
    Supply Inlet Branch,     !- Name
    ,                        !- Pressure Drop Curve Name
    Pump:VariableSpeed,      !- Component 1 Object Type
    Pump,                    !- Component 1 Name
    Supply Inlet Node,       !- Component 1 Inlet Node Name
    Supply Pump-Cooling Node;!- Component 1 Outlet Node Name

  Pump:VariableSpeed,
    Pump,                    !- Name
    Supply Inlet Node,       !- Inlet Node Name
    Supply Pump-Cooling Node,!- Outlet Node Name
    0.005,                   !- Design Maximum Flow Rate {m3/s}
    300000,                  !- Design Pump Head {Pa}
    2250,                    !- Design Power Consumption {W}
    0.87,                    !- Motor Efficiency
    0.0,                     !- Fraction of Motor Inefficiencies to Fluid Stream
    0,                       !- Coefficient 1 of the Part Load Performance Curve
    1,                       !- Coefficient 2 of the Part Load Performance Curve
    0,                       !- Coefficient 3 of the Part Load Performance Curve
    0,                       !- Coefficient 4 of the Part Load Performance Curve
    0,                       !- Design Minimum Flow Rate {m3/s}
    INTERMITTENT;            !- Pump Control Type

  Branch,
    Cooling Branch,          !- Name
    ,                        !- Pressure Drop Curve Name
    PlantComponent:TemperatureSource,  !- Component 1 Object Type
    FluidSource,             !- Component 1 Name
    FluidSource Inlet Node,  !- Component 1 Inlet Node Name
    FluidSource Outlet Node; !- Component 1 Outlet Node Name

  Sizing:Plant,
    Main Loop,               !- Plant or Condenser Loop Name
    Cooling,                 !- Loop Type
    10,                      !- Design Loop Exit Temperature {C}
    4;                       !- Loop Design Temperature Difference {deltaC}

  PlantComponent:TemperatureSource,
    FluidSource,             !- Name
    FluidSource Inlet Node,  !- Inlet Node
    FluidSource Outlet Node, !- Outlet Node
    Autosize,                !- Design Volume Flow Rate {m3/s}
    Constant,                !- Temperature Specification Type
    8,                       !- Source Temperature {C}
    ;                        !- Source Temperature Schedule Name

  Branch,
    Supply Bypass Branch,    !- Name
    ,                        !- Pressure Drop Curve Name
    Pipe:Adiabatic,          !- Component 1 Object Type
    Supply Bypass Pipe,      !- Component 1 Name
    Supply Bypass Inlet Node,!- Component 1 Inlet Node Name
    Supply Bypass Outlet Node;  !- Component 1 Outlet Node Name

  Pipe:Adiabatic,
    Supply Bypass Pipe,      !- Name
    Supply Bypass Inlet Node,!- Inlet Node Name
    Supply Bypass Outlet Node;  !- Outlet Node Name

  Branch,
    Supply Outlet Branch,    !- Name
    ,                        !- Pressure Drop Curve Name
    Pipe:Adiabatic,          !- Component 1 Object Type
    Supply Outlet Pipe,      !- Component 1 Name
    Supply Cooling-Pipe Node,!- Component 1 Inlet Node Name
    Supply Outlet Node;      !- Component 1 Outlet Node Name

  Pipe:Adiabatic,
    Supply Outlet Pipe,      !- Name
    Supply Cooling-Pipe Node,!- Inlet Node Name
    Supply Outlet Node;      !- Outlet Node Name

  BranchList,
    Demand Branches,         !- Name
    Demand Branch;           !- Branch 1 Name

  Branch,
    Demand Branch,           !- Name
    ,                        !- Pressure Drop Curve Name
    LoadProfile:Plant,       !- Component 1 Object Type
    Load Profile 1,          !- Component 1 Name
    Demand Inlet Node,       !- Component 1 Inlet Node Name
    Demand Outlet Node;      !- Component 1 Outlet Node Name

  LoadProfile:Plant,
    Load Profile 1,          !- Name
    Demand Inlet Node,       !- Inlet Node Name
    Demand Outlet Node,      !- Outlet Node Name
    Load Profile 1 Load Schedule,  !- Load Schedule Name
    0.002,                   !- Peak Flow Rate {m3/s}
    Load Profile 1 Flow Frac Schedule;  !- Flow Rate Fraction Schedule Name

  ScheduleTypeLimits,
    Any Number;              !- Name

  ScheduleTypeLimits,
    On/Off,                  !- Name
    0,                       !- Lower Limit Value
    1,                       !- Upper Limit Value
    DISCRETE;                !- Numeric Type

  Schedule:Compact,
    Main Loop Temp Sch,      !- Name
    Any Number,              !- Schedule Type Limits Name
    THROUGH: 12/31,          !- Field 1
    FOR: AllDays,            !- Field 2
    UNTIL: 24:00,10.0;       !- Field 3

  Schedule:Compact,
    AlwaysOnSchedule,        !- Name
    On/Off,                  !- Schedule Type Limits Name
    THROUGH: 12/31,          !- Field 1
    FOR: AllDays,            !- Field 2
    UNTIL: 24:00,1;          !- Field 3

  Schedule:Compact,
    Load Profile 1 Load Schedule,  !- Name
    Any Number,              !- Schedule Type Limits Name
    THROUGH: 12/31,          !- Field 1
    FOR: AllDays,            !- Field 2
    UNTIL: 4:00,0,           !- Field 3
    UNTIL: 8:00,-5000,       !- Field 5
    UNTIL: 9:00,-10000,      !- Field 7
    UNTIL: 12:00,-15000,     !- Field 9
    UNTIL: 18:00,-10000,     !- Field 11
    UNTIL: 24:00,0;          !- Field 13

  Schedule:Compact,
    Load Profile 1 Flow Frac Schedule,  !- Name
    Any Number,              !- Schedule Type Limits Name
    THROUGH: 12/31,          !- Field 1
    FOR: AllDays,            !- Field 2
    UNTIL: 24:00,1.0;        !- Field 3

  Output:VariableDictionary,IDF;

  Output:Variable,*,System Node Temperature,Hourly;

  Output:Variable,*,System Node Mass Flow Rate,Hourly;

  Output:Variable,*,Plant Load Profile Mass Flow Rate,Hourly;

  Output:Variable,*,Plant Load Profile Heat Transfer Rate,Hourly;

  Output:Variable,*,Plant Load Profile Heat Transfer Energy,Hourly;

  Output:Variable,*,Plant Temperature Source Component Mass Flow Rate,hourly;

  Output:Variable,*,Plant Temperature Source Component Inlet Temperature,hourly;

  Output:Variable,*,Plant Temperature Source Component Outlet Temperature,hourly;

  Output:Variable,*,Plant Temperature Source Component Source Temperature,hourly;

  Output:Variable,*,Plant Temperature Source Component Heat Transfer Rate,hourly;

  Output:Variable,*,Plant Temperature Source Component Heat Transfer Energy,hourly;

  Output:Variable,*,System Node Maximum Limit Mass Flow Rate,hourly;

  Output:Variable,*,System Node Maximum Available Mass Flow Rate,hourly;

  Output:Variable,*,System Node Requested Mass Flow Rate,hourly;

  Output:Diagnostics,
    DisplayAdvancedReportVariables;  !- Key 1

