! PlantHorizontalGroundHX.idf
! Basic file description:
!     This input file exemplifies the use of the GroundHeatExchanger:HorizontalTrench
!     object to perform the simulation of a series of buried horizontal pipes as part
!     of a horizontal ground heat exchanger.
! Highlights: Horizontal Ground Heat Exchanger simulation
! Location: Denver, CO
! Design Days: SummerDesignDay, WinterDesignDay
! Run Period: Annual simulation
! Run Control: Run design days, not run period, no sizing
!
! Building: None
! Floor Area: N/A
! Number of Stories: N/A
!
! Zone Description Details: No Zone
! Internal gains description: N/A
! Interzone Surfaces: N/A
! Internal Mass: N/A
! People: N/A
! Lights: N/A
! Windows: N/A
! Detached Shading: N/A
! Daylight: N/A
! Natural Ventilation: N/A
! Compact Schedules (preferred): Used exclusively
! Solar Distribution: N/A
!
! HVAC: Single plant loop only
! Purchased Air: N/A
! Zonal Equipment: N/A
! Central Air Handling Equipment: N/A
! System Equipment Autosize: N/A
! Purchased Cooling: N/A
! Purchased Heating: N/A
! Coils: N/A
! Pumps: Variable Speed
! Boilers: N/A
! Chillers: N/A
! Towers: N/A
! Plant feature: Single branch demand and supply loop sides for simplicity
!
! Results: Standard hourly reporting
! Standard Reports: No
! Timestep or Hourly Variables: node temperature, relevant heat exchanger variables
! Time bins Report: No
! HTML Report: Yes
! Environmental Emissions: No
! Utility Tariffs: No
!***********************************************************
!****** SIMULATION CONTROLS ********************************
!***********************************************************

  Version,24.1;

  Building,
    Piping System Example,   !- Name
    0.0,                     !- North Axis {deg}
    Suburbs,                 !- Terrain
    0.05,                    !- Loads Convergence Tolerance Value {W}
    0.05,                    !- Temperature Convergence Tolerance Value {deltaC}
    FullInteriorAndExterior, !- Solar Distribution
    35,                      !- Maximum Number of Warmup Days
    6;                       !- Minimum Number of Warmup Days

  Timestep,1;

  GlobalGeometryRules,
    UpperLeftCorner,         !- Starting Vertex Position
    CounterClockWise,        !- Vertex Entry Direction
    Relative;                !- Coordinate System

  RunPeriod,
    Annual Run,              !- Name
    1,                       !- Begin Month
    1,                       !- Begin Day of Month
    ,                        !- Begin Year
    12,                      !- End Month
    31,                      !- End Day of Month
    ,                        !- End Year
    Tuesday,                 !- Day of Week for Start Day
    Yes,                     !- Use Weather File Holidays and Special Days
    Yes,                     !- Use Weather File Daylight Saving Period
    No,                      !- Apply Weekend Holiday Rule
    Yes,                     !- Use Weather File Rain Indicators
    Yes;                     !- Use Weather File Snow Indicators

  SimulationControl,
    No,                      !- Do Zone Sizing Calculation
    No,                      !- Do System Sizing Calculation
    No,                      !- Do Plant Sizing Calculation
    Yes,                     !- Run Simulation for Sizing Periods
    No,                      !- Run Simulation for Weather File Run Periods
    No,                      !- Do HVAC Sizing Simulation for Sizing Periods
    1;                       !- Maximum Number of HVAC Sizing Simulation Passes

!***********************************************************
!****** LOCATION SPECIFIC OBJECTS **************************
!***********************************************************

  Site:Location,
    Denver Centennial CO USA WMO=724666,  !- Name
    39.57,                   !- Latitude {deg}
    -104.85,                 !- Longitude {deg}
    -7.00,                   !- Time Zone {hr}
    1793.00;                 !- Elevation {m}

  SizingPeriod:DesignDay,
    Denver Centennial Ann Htg 99.6% Condns DB,  !- Name
    12,                      !- Month
    21,                      !- Day of Month
    WinterDesignDay,         !- Day Type
    -18.8,                   !- Maximum Dry-Bulb Temperature {C}
    0.0,                     !- Daily Dry-Bulb Temperature Range {deltaC}
    ,                        !- Dry-Bulb Temperature Range Modifier Type
    ,                        !- Dry-Bulb Temperature Range Modifier Day Schedule Name
    Wetbulb,                 !- Humidity Condition Type
    -18.8,                   !- Wetbulb or DewPoint at Maximum Dry-Bulb {C}
    ,                        !- Humidity Condition Day Schedule Name
    ,                        !- Humidity Ratio at Maximum Dry-Bulb {kgWater/kgDryAir}
    ,                        !- Enthalpy at Maximum Dry-Bulb {J/kg}
    ,                        !- Daily Wet-Bulb Temperature Range {deltaC}
    81560.,                  !- Barometric Pressure {Pa}
    3,                       !- Wind Speed {m/s}
    340,                     !- Wind Direction {deg}
    No,                      !- Rain Indicator
    No,                      !- Snow Indicator
    No,                      !- Daylight Saving Time Indicator
    ASHRAEClearSky,          !- Solar Model Indicator
    ,                        !- Beam Solar Day Schedule Name
    ,                        !- Diffuse Solar Day Schedule Name
    ,                        !- ASHRAE Clear Sky Optical Depth for Beam Irradiance (taub) {dimensionless}
    ,                        !- ASHRAE Clear Sky Optical Depth for Diffuse Irradiance (taud) {dimensionless}
    0.00;                    !- Sky Clearness

  SizingPeriod:DesignDay,
    Denver Centennial Ann Clg 1% Condns DB=>MWB,  !- Name
    7,                       !- Month
    21,                      !- Day of Month
    SummerDesignDay,         !- Day Type
    32,                      !- Maximum Dry-Bulb Temperature {C}
    15.2,                    !- Daily Dry-Bulb Temperature Range {deltaC}
    ,                        !- Dry-Bulb Temperature Range Modifier Type
    ,                        !- Dry-Bulb Temperature Range Modifier Day Schedule Name
    Wetbulb,                 !- Humidity Condition Type
    15.5,                    !- Wetbulb or DewPoint at Maximum Dry-Bulb {C}
    ,                        !- Humidity Condition Day Schedule Name
    ,                        !- Humidity Ratio at Maximum Dry-Bulb {kgWater/kgDryAir}
    ,                        !- Enthalpy at Maximum Dry-Bulb {J/kg}
    ,                        !- Daily Wet-Bulb Temperature Range {deltaC}
    81560.,                  !- Barometric Pressure {Pa}
    4.9,                     !- Wind Speed {m/s}
    0,                       !- Wind Direction {deg}
    No,                      !- Rain Indicator
    No,                      !- Snow Indicator
    No,                      !- Daylight Saving Time Indicator
    ASHRAEClearSky,          !- Solar Model Indicator
    ,                        !- Beam Solar Day Schedule Name
    ,                        !- Diffuse Solar Day Schedule Name
    ,                        !- ASHRAE Clear Sky Optical Depth for Beam Irradiance (taub) {dimensionless}
    ,                        !- ASHRAE Clear Sky Optical Depth for Diffuse Irradiance (taud) {dimensionless}
    1.00;                    !- Sky Clearness

!***********************************************************
!****** OTHER SCHEDULING ***********************************
!***********************************************************

  ScheduleTypeLimits,
    Any Number;              !- Name

  ScheduleTypeLimits,
    On/Off,                  !- Name
    0,                       !- Lower Limit Value
    1,                       !- Upper Limit Value
    DISCRETE;                !- Numeric Type

  ScheduleTypeLimits,
    Fraction,                !- Name
    0,                       !- Lower Limit Value
    1,                       !- Upper Limit Value
    CONTINUOUS;              !- Numeric Type

  ScheduleTypeLimits,
    Temperature,             !- Name
    -100,                    !- Lower Limit Value
    200,                     !- Upper Limit Value
    Continuous;              !- Numeric Type

  Schedule:Compact,
    LoadSchedule,            !- Name
    Any Number,              !- Schedule Type Limits Name
    Through: 04/30,          !- Field 1
    For: AllDays,            !- Field 2
    Until: 24:00,2000,       !- Field 3
    Through: 09/30,          !- Field 5
    For: AllDays,            !- Field 6
    Until: 24:00,-3000,      !- Field 7
    Through: 12/31,          !- Field 9
    For: AllDays,            !- Field 10
    Until: 24:00,2000;       !- Field 11

  Schedule:Compact,
    FlowFracSchedule,        !- Name
    Any Number,              !- Schedule Type Limits Name
    Through: 12/31,          !- Field 1
    For: AllDays,            !- Field 2
    Until: 24:00,1;          !- Field 3

  Schedule:Compact,
    AlwaysOnSchedule,        !- Name
    On/Off,                  !- Schedule Type Limits Name
    Through: 12/31,          !- Field 1
    For: AllDays,            !- Field 2
    Until: 24:00,1;          !- Field 3

!***********************************************************
!****** HORIZONTAL HEAT EXCHANGER **************************
!***********************************************************

  GroundHeatExchanger:HorizontalTrench,
    My Pipe Circuit,         !- Name
    Plant Supply Intermediate Node,  !- Inlet Node Name
    Plant Supply Outlet Node,!- Outlet Node Name
    0.004,                   !- Design Flow Rate {m3/s}
    75,                      !- Trench Length in Pipe Axial Direction {m}
    2,                       !- Number of Trenches
    2.0,                     !- Horizontal Spacing Between Pipes {m}
    0.016,                   !- Pipe Inner Diameter {m}
    0.02667,                 !- Pipe Outer Diameter {m}
    1.25,                    !- Burial Depth {m}
    1.08,                    !- Soil Thermal Conductivity {W/m-K}
    962,                     !- Soil Density {kg/m3}
    2576,                    !- Soil Specific Heat {J/kg-K}
    0.3895,                  !- Pipe Thermal Conductivity {W/m-K}
    641,                     !- Pipe Density {kg/m3}
    2405,                    !- Pipe Specific Heat {J/kg-K}
    30,                      !- Soil Moisture Content Percent {percent}
    50,                      !- Soil Moisture Content Percent at Saturation {percent}
    Site:GroundTemperature:Undisturbed:KusudaAchenbach,  !- Undisturbed Ground Temperature Model Type
    KATemps,                 !- Undisturbed Ground Temperature Model Name
    0.408;                   !- Evapotranspiration Ground Cover Parameter

  Site:GroundTemperature:Undisturbed:KusudaAchenbach,
    KATemps,                 !- Name
    1.08,                    !- Soil Thermal Conductivity {W/m-K}
    962,                     !- Soil Density {kg/m3}
    2576,                    !- Soil Specific Heat {J/kg-K}
    15.5,                    !- Average Soil Surface Temperature {C}
    12.8,                    !- Average Amplitude of Surface Temperature {deltaC}
    17.3;                    !- Phase Shift of Minimum Surface Temperature {days}

!***********************************************************
!****** Plant LOOP *************************************
!***********************************************************

  PlantLoop,
    Plant Loop,              !- Name
    UserDefinedFluidType,    !- Fluid Type
    PropyleneGlycol70Percent,!- User Defined Fluid Type
    Loop Operation,          !- Plant Equipment Operation Scheme Name
    Plant Supply Outlet Node,!- Loop Temperature Setpoint Node Name
    80,                      !- Maximum Loop Temperature {C}
    -30,                     !- Minimum Loop Temperature {C}
    0.004,                   !- Maximum Loop Flow Rate {m3/s}
    0,                       !- Minimum Loop Flow Rate {m3/s}
    autocalculate,           !- Plant Loop Volume {m3}
    Plant Supply Inlet Node, !- Plant Side Inlet Node Name
    Plant Supply Outlet Node,!- Plant Side Outlet Node Name
    Plant Supply Side Branches,  !- Plant Side Branch List Name
    ,                        !- Plant Side Connector List Name
    Plant Demand Inlet Node, !- Demand Side Inlet Node Name
    Plant Demand Outlet Node,!- Demand Side Outlet Node Name
    Plant Demand Side Branches,  !- Demand Side Branch List Name
    ,                        !- Demand Side Connector List Name
    SequentialLoad;          !- Load Distribution Scheme

  SetpointManager:Scheduled,
    Main Loop Setpoint Manager,  !- Name
    Temperature,             !- Control Variable
    Main Loop Temp Sch,      !- Schedule Name
    Main Loop Setpoint Node List;  !- Setpoint Node or NodeList Name

  Schedule:Compact,
    Main Loop Temp Sch,      !- Name
    Temperature,             !- Schedule Type Limits Name
    Through: 12/31,          !- Field 1
    For: AllDays,            !- Field 2
    Until: 24:00,30.0;       !- Field 3

  NodeList,
    Main Loop Setpoint Node List,  !- Name
    Plant Supply Outlet Node;!- Node 1 Name

  BranchList,
    Plant Supply Side Branches,  !- Name
    Plant Supply Branch;     !- Branch 1 Name

  Branch,
    Plant Supply Branch,     !- Name
    ,                        !- Pressure Drop Curve Name
    Pump:VariableSpeed,      !- Component 1 Object Type
    Cond Circ Pump,          !- Component 1 Name
    Plant Supply Inlet Node, !- Component 1 Inlet Node Name
    Plant Supply Intermediate Node,  !- Component 1 Outlet Node Name
    GroundHeatExchanger:HorizontalTrench,  !- Component 2 Object Type
    My Pipe Circuit,         !- Component 2 Name
    Plant Supply Intermediate Node,  !- Component 2 Inlet Node Name
    Plant Supply Outlet Node;!- Component 2 Outlet Node Name

  BranchList,
    Plant Demand Side Branches,  !- Name
    Plant Demand Branch;     !- Branch 1 Name

  Branch,
    Plant Demand Branch,     !- Name
    ,                        !- Pressure Drop Curve Name
    LoadProfile:Plant,       !- Component 1 Object Type
    Load Profile,            !- Component 1 Name
    Plant Demand Inlet Node, !- Component 1 Inlet Node Name
    Plant Demand Outlet Node;!- Component 1 Outlet Node Name

  LoadProfile:Plant,
    Load Profile,            !- Name
    Plant Demand Inlet Node, !- Inlet Node Name
    Plant Demand Outlet Node,!- Outlet Node Name
    LoadSchedule,            !- Load Schedule Name
    0.004,                   !- Peak Flow Rate {m3/s}
    FlowFracSchedule,        !- Flow Rate Fraction Schedule Name
    Water;                   !- Plant Loop Fluid Type

  PlantEquipmentOperationSchemes,
    Loop Operation,          !- Name
    PlantEquipmentOperation:Uncontrolled,  !- Control Scheme 1 Object Type
    Year Round Operation,    !- Control Scheme 1 Name
    AlwaysOnSchedule;        !- Control Scheme 1 Schedule Name

  PlantEquipmentOperation:Uncontrolled,
    Year Round Operation,    !- Name
    HX Equipment;            !- Equipment List Name

  PlantEquipmentList,
    HX Equipment,            !- Name
    GroundHeatExchanger:HorizontalTrench,  !- Equipment 1 Object Type
    My Pipe Circuit;         !- Equipment 1 Name

  Pump:VariableSpeed,
    Cond Circ Pump,          !- Name
    Plant Supply Inlet Node, !- Inlet Node Name
    Plant Supply Intermediate Node,  !- Outlet Node Name
    .004,                    !- Design Maximum Flow Rate {m3/s}
    5000,                    !- Design Pump Head {Pa}
    25,                      !- Design Power Consumption {W}
    .87,                     !- Motor Efficiency
    0.0,                     !- Fraction of Motor Inefficiencies to Fluid Stream
    0,                       !- Coefficient 1 of the Part Load Performance Curve
    1,                       !- Coefficient 2 of the Part Load Performance Curve
    0,                       !- Coefficient 3 of the Part Load Performance Curve
    0,                       !- Coefficient 4 of the Part Load Performance Curve
    0,                       !- Design Minimum Flow Rate {m3/s}
    INTERMITTENT;            !- Pump Control Type

!***********************************************************
!****** OUTPUT CONTROLS ************************************
!***********************************************************

  Output:VariableDictionary,IDF;

  Output:Variable,*,System Node Temperature,Hourly;

  Output:Variable,*,Pump Mass Flow Rate,Hourly;

  Output:Variable,*,Ground Heat Exchanger Mass Flow Rate,Hourly;

  Output:Variable,*,Ground Heat Exchanger Inlet Temperature,Hourly;

  Output:Variable,*,Ground Heat Exchanger Outlet Temperature,Hourly;

  Output:Variable,*,Ground Heat Exchanger Fluid Heat Transfer Rate,Hourly;

  OutputControl:Table:Style,
    HTML;                    !- Column Separator

  Output:Table:SummaryReports,
    AllSummary;              !- Report 1 Name

  FluidProperties:Name,
    PropyleneGlycol,         !- Fluid Name
    GLYCOL;                  !- Fluid Type

  FluidProperties:GlycolConcentration,
    PropyleneGlycol70Percent,!- Name
    PropyleneGlycol,         !- Glycol Type
    ,                        !- User Defined Glycol Name
    0.7;                     !- Glycol Concentration

