!************************************INTRODUCTION**********************************************
! This IDF file designs the system that is discussed in Example 2 of the EnergyPlus
! applications guide. This system consists of a five zone building that is serviced by three
! separate Plant systems. The cooling system is operated by using three plant loops, the
! Primary cooling loop/system (CoolSysPrimary), the secondary cooling system (CoolSysSecondary)
! and the condenser loop (Condenser Loop). The Heating system (HeatSys 1) services the heating
! loads while the Hot Water System (SHWSys 1) services the hot water need of the building.
! The plant loops are modeled before the building system.
!**********************************************************************************************
!****************************************START IDF FILE****************************************
!-Generator IDFEditor 1.34
!-Option OriginalOrderTop UseSpecialFormat
!-NOTE: All comments with '!-' are ignored by the IDFEditor and are generated automatically.
!-      Use '!' comments if they need to be retained when using the IDFEditor.
! PlantApplicationsGuide_Example2.idf
! Basic file description:  1 story building divided into 4 exterior and one interior conditioned zone
!
! Highlights:              Illustrates the use of a stratified chilled water storage tank to run the chiller at night
!
! Simulation Location/Run: CHICAGO_IL_USA TMY2-94846, 2 design days, 2 run periods,
!                          Run Control executes the run periods using the weather file
!
! Location:                Chicago, IL
!
! Design Days:             CHICAGO_IL_USA Annual Heating 99.6%, MaxDB=-20.6°C
!                          CHICAGO_IL_USA Annual Cooling (DB=>MWB) .4%, MaxDB=33.2°C MWB=23.8°C
!
! Run Period (Weather File): Summer 7/11-7/18, CHICAGO_IL_USA TMY2-94846
!
! Run Control:             Zone and System sizing with weather file run control (no design days run)
!
! Building: Single floor rectangular building. 5 zones - 4 exterior, 1 interior.
!           There are windows on all 4 facades.
!           Model started out from EnergyPlus Example File Generator
!           ASHRAE/IESNA/USGBC/DOE Advanced Energy Design Guide for 30% Savings (Office and Retail only)
!           Building is an office.
!           The south facing glass is shaded by overhangs.
!
!
! Floor Area:        800 m2
! Number of Stories: 1
!
!
! Internal gains description:     lighting is 10.8 W/m2, office equip is 16.07 watts/m2. There are occupants
!                                 for every 25.58 m2 of floor area. The infiltration is about 0.1 air changes per hour.
!
! Interzone Surfaces:             5 interzone surfaces
! Internal Mass:                  Yes, heavy internal furnishings
!
! Windows:                        per 30% AEDG  , overhangs.
! Doors:                          none
!
! Detached Shading:               None
! Daylight:                       8 skylights over core zone.
! Natural Ventilation:            None
! Compact Schedules:              Yes
!
! HVAC:                           Fan powered VAV system with outside air economizer, hot water reheat coils,
!                                 central chilled water cooling coil. Central Plant is single hot water
!                                 boiler, electric compression chiller with water cooled condenser.
!                                 Primary-secondary chilled water loops connected by a chilled water thermal tank
!                                 Primary loop has a chiller and is controlled to 6.7C and charges storage tank.
!                                 Secondary loop uses storage tank to serve the chilled water coil
!                                 Most equipment is autosized
!
! Zonal Equipment:                No
! Central Air Handling Equipment: Yes
! System Equipment Autosize:      Yes
! Purchased Cooling:              None
! Purchased Heating:              None
! Coils:                          Yes
! Pumps:                          Yes
! Boilers:                        Yes
! Chillers:                       Yes
!
! Results:
! Standard Reports:
! Timestep or Hourly Variables:   Hourly
! Time bins Report:               None
! HTML Report:                    yes, all summary and other monthly tables
! Environmental Emissions:        None
! Utility Tariffs:                Yes, PSI Indiana year 2004.
!**********************************VERSION IDENTIFIER****************************************

  Version,24.1;

!********************************************************************************************
!***********************COMMON PLANT LOOP SCHEDULES AND SCHEDULETYPELIMITS*******************

  ScheduleTypeLimits,
    Any Number;              !- Name

  ScheduleTypeLimits,
    Temperature,             !- Name
    -60,                     !- Lower Limit Value
    200,                     !- Upper Limit Value
    CONTINUOUS,              !- Numeric Type
    Temperature;             !- Unit Type

  Schedule:Compact,
    ALWAYS_ON,               !- Name
    Fraction,                !- Schedule Type Limits Name
    Through: 12/31,          !- Field 1
    For: AllDays,            !- Field 2
    Until: 24:00,1.0;        !- Field 3

  ScheduleTypeLimits,
    Fraction,                !- Name
    0.0,                     !- Lower Limit Value
    1.0,                     !- Upper Limit Value
    CONTINUOUS;              !- Numeric Type

  Schedule:Compact,
    PlantOnSchedule,         !- Name
    On/Off,                  !- Schedule Type Limits Name
    Through: 12/31,          !- Field 1
    For: AllDays,            !- Field 2
    Until: 24:00,1.0;        !- Field 3

  ScheduleTypeLimits,
    On/Off,                  !- Name
    0,                       !- Lower Limit Value
    1,                       !- Upper Limit Value
    DISCRETE;                !- Numeric Type

!********************************************************************************************
!************************************COOLING SIDE LOOPS**************************************
!============================PRIMARY COOLING SYSTEM (COOLSYSPRIMARY)=========================

  PlantLoop,
    CoolSysPrimary,          !- Name
    WATER,                   !- Fluid Type
    ,                        !- User Defined Fluid Type
    CoolSysPrimary Loop Operation Scheme List,  !- Plant Equipment Operation Scheme Name
    CoolSysPrimary Supply Outlet Node,  !- Loop Temperature Setpoint Node Name
    98.0,                    !- Maximum Loop Temperature {C}
    1.0,                     !- Minimum Loop Temperature {C}
    AUTOSIZE,                !- Maximum Loop Flow Rate {m3/s}
    0.0,                     !- Minimum Loop Flow Rate {m3/s}
    AUTOSIZE,                !- Plant Loop Volume {m3}
    CoolSysPrimary Supply Inlet Node,  !- Plant Side Inlet Node Name
    CoolSysPrimary Supply Outlet Node,  !- Plant Side Outlet Node Name
    CoolSysPrimary Supply Branches,  !- Plant Side Branch List Name
    CoolSysPrimary Supply Connectors,  !- Plant Side Connector List Name
    CoolSysPrimary Demand Inlet Node,  !- Demand Side Inlet Node Name
    CoolSysPrimary Demand Outlet Node,  !- Demand Side Outlet Node Name
    CoolSysPrimary Demand Branches,  !- Demand Side Branch List Name
    CoolSysPrimary Demand Connectors,  !- Demand Side Connector List Name
    OPTIMAL;                 !- Load Distribution Scheme

!========================COOLSYSPRIMARY SUPPLY SIDE LOOP CONSTRUCTION=========================
!---------------------LISTING AND MODELING ALL THE SUPPLY SIDE BRANCHES-----------------------

  BranchList,
    CoolSysPrimary Supply Branches,  !- Name
    CoolSysPrimary Supply Inlet Branch,  !- Branch 1 Name
    CoolSysPrimary Supply Equipment Branch,  !- Branch 2 Name
    CoolSysPrimary Supply Equipment Bypass Branch,  !- Branch 3 Name
    CoolSysPrimary Supply Outlet Branch;  !- Branch 4 Name

  Branch,
    CoolSysPrimary Supply Inlet Branch,  !- Name
    ,                        !- Pressure Drop Curve Name
    Pump:VariableSpeed,      !- Component 1 Object Type
    CoolSysPrimary Pump,     !- Component 1 Name
    CoolSysPrimary Supply Inlet Node,  !- Component 1 Inlet Node Name
    CoolSysPrimary Pump Outlet Node;  !- Component 1 Outlet Node Name

  Branch,
    CoolSysPrimary Supply Equipment Branch,  !- Name
    ,                        !- Pressure Drop Curve Name
    Chiller:Electric,        !- Component 1 Object Type
    CoolSysPrimary Chiller,  !- Component 1 Name
    CoolSysPrimary Chiller Inlet Node,  !- Component 1 Inlet Node Name
    CoolSysPrimary TES Use Inlet Node,  !- Component 1 Outlet Node Name
    ThermalStorage:ChilledWater:Stratified,  !- Component 2 Object Type
    Chilled Water Storage Tank 1,  !- Component 2 Name
    CoolSysPrimary TES Use Inlet Node,  !- Component 2 Inlet Node Name
    CoolSysPrimary TES Use Outlet Node;  !- Component 2 Outlet Node Name

  Branch,
    CoolSysPrimary Supply Equipment Bypass Branch,  !- Name
    ,                        !- Pressure Drop Curve Name
    Pipe:Adiabatic,          !- Component 1 Object Type
    CoolSysPrimary Supply Equipment Bypass Pipe,  !- Component 1 Name
    CoolSysPrimary Supply Equip Bypass Inlet Node,  !- Component 1 Inlet Node Name
    CoolSysPrimary Supply Equip Bypass Outlet Node;  !- Component 1 Outlet Node Name

  Branch,
    CoolSysPrimary Supply Outlet Branch,  !- Name
    ,                        !- Pressure Drop Curve Name
    Pipe:Adiabatic,          !- Component 1 Object Type
    CoolSysPrimary Supply Outlet Pipe,  !- Component 1 Name
    CoolSysPrimary Supply Mixer-CoolSysPrimary Supply Outlet Pipe,  !- Component 1 Inlet Node Name
    CoolSysPrimary Supply Outlet Node;  !- Component 1 Outlet Node Name

  ThermalStorage:ChilledWater:Stratified,
    Chilled Water Storage Tank 1,  !- Name
    50.0,                    !- Tank Volume {m3}
    8.0,                     !- Tank Height {m}
    VerticalCylinder,        !- Tank Shape
    ,                        !- Tank Perimeter {m}
    CW Tank Temp Schedule,   !- Setpoint Temperature Schedule Name
    2.5,                     !- Deadband Temperature Difference {deltaC}
    6.5,                     !- Temperature Sensor Height {m}
    1.0,                     !- Minimum Temperature Limit {C}
    50000,                   !- Nominal Cooling Capacity {W}
    Zone,                    !- Ambient Temperature Indicator
    ,                        !- Ambient Temperature Schedule Name
    ZN_1_FLR_1_SEC_5,        !- Ambient Temperature Zone Name
    ,                        !- Ambient Temperature Outdoor Air Node Name
    0.5,                     !- Uniform Skin Loss Coefficient per Unit Area to Ambient Temperature {W/m2-K}
    CoolSysPrimary TES Use Inlet Node,  !- Use Side Inlet Node Name
    CoolSysPrimary TES Use Outlet Node,  !- Use Side Outlet Node Name
    1.0,                     !- Use Side Heat Transfer Effectiveness
    ALWAYS_ON,               !- Use Side Availability Schedule Name
    7.85,                    !- Use Side Inlet Height {m}
    0.15,                    !- Use Side Outlet Height {m}
    autosize,                !- Use Side Design Flow Rate {m3/s}
    ,                        !- Source Side Inlet Node Name
    ,                        !- Source Side Outlet Node Name
    0.9,                     !- Source Side Heat Transfer Effectiveness
    TES Charge Schedule,     !- Source Side Availability Schedule Name
    0.15,                    !- Source Side Inlet Height {m}
    7.85,                    !- Source Side Outlet Height {m}
    5.0E-3,                  !- Source Side Design Flow Rate {m3/s}
    4.0,                     !- Tank Recovery Time {hr}
    Seeking,                 !- Inlet Mode
    6,                       !- Number of Nodes
    0.0;                     !- Additional Destratification Conductivity {W/m-K}

!---------------------------------------------------------------------------------------------
!---------------------LISTING AND MODELING ALL THE SUPPLY SIDE CONNECTORS---------------------

  ConnectorList,
    CoolSysPrimary Supply Connectors,  !- Name
    Connector:Splitter,      !- Connector 1 Object Type
    CoolSysPrimary Supply Splitter,  !- Connector 1 Name
    Connector:Mixer,         !- Connector 2 Object Type
    CoolSysPrimary Supply Mixer;  !- Connector 2 Name

  Connector:Splitter,
    CoolSysPrimary Supply Splitter,  !- Name
    CoolSysPrimary Supply Inlet Branch,  !- Inlet Branch Name
    CoolSysPrimary Supply Equipment Branch,  !- Outlet Branch 1 Name
    CoolSysPrimary Supply Equipment Bypass Branch;  !- Outlet Branch 2 Name

  Connector:Mixer,
    CoolSysPrimary Supply Mixer,  !- Name
    CoolSysPrimary Supply Outlet Branch,  !- Outlet Branch Name
    CoolSysPrimary Supply Equipment Branch,  !- Inlet Branch 1 Name
    CoolSysPrimary Supply Equipment Bypass Branch;  !- Inlet Branch 2 Name

!---------------------------------------------------------------------------------------------
!---------------------------COOLSYSPRIMARY SUPPLY SIDE COMPONENTS-----------------------------

  Pump:VariableSpeed,
    CoolSysPrimary Pump,     !- Name
    CoolSysPrimary Supply Inlet Node,  !- Inlet Node Name
    CoolSysPrimary Pump Outlet Node,  !- Outlet Node Name
    AUTOSIZE,                !- Design Maximum Flow Rate {m3/s}
    15000,                   !- Design Pump Head {Pa}
    AUTOSIZE,                !- Design Power Consumption {W}
    0.9,                     !- Motor Efficiency
    0.0,                     !- Fraction of Motor Inefficiencies to Fluid Stream
    0,                       !- Coefficient 1 of the Part Load Performance Curve
    1,                       !- Coefficient 2 of the Part Load Performance Curve
    0,                       !- Coefficient 3 of the Part Load Performance Curve
    0,                       !- Coefficient 4 of the Part Load Performance Curve
    0.0,                     !- Design Minimum Flow Rate {m3/s}
    Intermittent;            !- Pump Control Type

  Chiller:Electric,
    CoolSysPrimary Chiller,  !- Name
    WaterCooled,             !- Condenser Type
    10000000,                !- Nominal Capacity {W}
    4.0,                     !- Nominal COP {W/W}
    CoolSysPrimary Chiller Inlet Node,  !- Chilled Water Inlet Node Name
    CoolSysPrimary TES Use Inlet Node,  !- Chilled Water Outlet Node Name
    CoolSysPrimary Chiller Water Inlet Node,  !- Condenser Inlet Node Name
    CoolSysPrimary Chiller Water Outlet Node,  !- Condenser Outlet Node Name
    .15,                     !- Minimum Part Load Ratio
    1.0,                     !- Maximum Part Load Ratio
    .65,                     !- Optimum Part Load Ratio
    29.44,                   !- Design Condenser Inlet Temperature {C}
    2.682759,                !- Temperature Rise Coefficient
    6.667,                   !- Design Chilled Water Outlet Temperature {C}
    0.0011,                  !- Design Chilled Water Flow Rate {m3/s}
    0.0005,                  !- Design Condenser Fluid Flow Rate {m3/s}
    0.94483600,              !- Coefficient 1 of Capacity Ratio Curve
    -.05700880,              !- Coefficient 2 of Capacity Ratio Curve
    -.00185486,              !- Coefficient 3 of Capacity Ratio Curve
    1.907846,                !- Coefficient 1 of Power Ratio Curve
    -1.20498700,             !- Coefficient 2 of Power Ratio Curve
    0.26346230,              !- Coefficient 3 of Power Ratio Curve
    0.03303,                 !- Coefficient 1 of Full Load Ratio Curve
    0.6852,                  !- Coefficient 2 of Full Load Ratio Curve
    0.2818,                  !- Coefficient 3 of Full Load Ratio Curve
    5,                       !- Chilled Water Outlet Temperature Lower Limit {C}
    ConstantFlow;            !- Chiller Flow Mode

  Pipe:Adiabatic,
    CoolSysPrimary Supply Equipment Bypass Pipe,  !- Name
    CoolSysPrimary Supply Equip Bypass Inlet Node,  !- Inlet Node Name
    CoolSysPrimary Supply Equip Bypass Outlet Node;  !- Outlet Node Name

  Pipe:Adiabatic,
    CoolSysPrimary Supply Outlet Pipe,  !- Name
    CoolSysPrimary Supply Mixer-CoolSysPrimary Supply Outlet Pipe,  !- Inlet Node Name
    CoolSysPrimary Supply Outlet Node;  !- Outlet Node Name

!---------------------------------------------------------------------------------------------
!=============================================================================================
!=======================COOLSYSPRIMARY DEMAND SIDE LOOP CONSTRUCTION==========================
!---------------------LISTING AND MODELING ALL THE DEMAND SIDE BRANCHES-----------------------

  BranchList,
    CoolSysPrimary Demand Branches,  !- Name
    CoolSysPrimary Demand Inlet Branch,  !- Branch 1 Name
    CoolSysPrimary Demand Load Branch,  !- Branch 2 Name
    CoolSysPrimary Demand Equipment Bypass Branch,  !- Branch 3 Name
    CoolSysPrimary Demand Outlet Branch;  !- Branch 4 Name

  Branch,
    CoolSysPrimary Demand Inlet Branch,  !- Name
    ,                        !- Pressure Drop Curve Name
    Pipe:Adiabatic,          !- Component 1 Object Type
    CoolSysPrimary Demand Inlet Pipe,  !- Component 1 Name
    CoolSysPrimary Demand Inlet Node,  !- Component 1 Inlet Node Name
    CoolSysPrimary Demand Inlet Pipe-CoolSysPrimary Demand Mixer;  !- Component 1 Outlet Node Name

  Branch,
    CoolSysPrimary Demand Load Branch,  !- Name
    ,                        !- Pressure Drop Curve Name
    Coil:Cooling:Water,      !- Component 1 Object Type
    VAV WITH REHEAT_CoolC,   !- Component 1 Name
    VAV WITH REHEAT_CoolCDemand Inlet Node,  !- Component 1 Inlet Node Name
    VAV WITH REHEAT_CoolCDemand Outlet Node;  !- Component 1 Outlet Node Name

  Branch,
    CoolSysPrimary Demand Equipment Bypass Branch,  !- Name
    ,                        !- Pressure Drop Curve Name
    Pipe:Adiabatic,          !- Component 1 Object Type
    CoolSysPrimary Demand Equipment Bypass Pipe,  !- Component 1 Name
    CoolSysPrimary Demand Equipment Bypass Pipe Inlet Node,  !- Component 1 Inlet Node Name
    CoolSysPrimary Demand Equipment Bypass Pipe Outlet Node;  !- Component 1 Outlet Node Name

  Branch,
    CoolSysPrimary Demand Outlet Branch,  !- Name
    ,                        !- Pressure Drop Curve Name
    Pipe:Adiabatic,          !- Component 1 Object Type
    CoolSysPrimary Demand Outlet Pipe,  !- Component 1 Name
    CoolSysPrimary Demand Mixer-CoolSysPrimary Demand Outlet Pipe,  !- Component 1 Inlet Node Name
    CoolSysPrimary Demand Outlet Node;  !- Component 1 Outlet Node Name

!---------------------LISTING AND MODELING ALL THE DEMAND SIDE CONNECTORS---------------------

  ConnectorList,
    CoolSysPrimary Demand Connectors,  !- Name
    Connector:Splitter,      !- Connector 1 Object Type
    CoolSysPrimary Demand Splitter,  !- Connector 1 Name
    Connector:Mixer,         !- Connector 2 Object Type
    CoolSysPrimary Demand Mixer;  !- Connector 2 Name

  Connector:Splitter,
    CoolSysPrimary Demand Splitter,  !- Name
    CoolSysPrimary Demand Inlet Branch,  !- Inlet Branch Name
    CoolSysPrimary Demand Load Branch,  !- Outlet Branch 1 Name
    CoolSysPrimary Demand Equipment Bypass Branch;  !- Outlet Branch 2 Name

  Connector:Mixer,
    CoolSysPrimary Demand Mixer,  !- Name
    CoolSysPrimary Demand Outlet Branch,  !- Outlet Branch Name
    CoolSysPrimary Demand Load Branch,  !- Inlet Branch 1 Name
    CoolSysPrimary Demand Equipment Bypass Branch;  !- Inlet Branch 2 Name

!--------------------------------------------------------------------------------------------
!---------------------------COOLSYSPRIMARY DEMAND SIDE COMPONENTS----------------------------
  !The TES tank will be modeled in the supply side of COOLSYSSECONDARY

  Pipe:Adiabatic,
    CoolSysPrimary Demand Inlet Pipe,  !- Name
    CoolSysPrimary Demand Inlet Node,  !- Inlet Node Name
    CoolSysPrimary Demand Inlet Pipe-CoolSysPrimary Demand Mixer;  !- Outlet Node Name

  Pipe:Adiabatic,
    CoolSysPrimary Demand Equipment Bypass Pipe,  !- Name
    CoolSysPrimary Demand Equipment Bypass Pipe Inlet Node,  !- Inlet Node Name
    CoolSysPrimary Demand Equipment Bypass Pipe Outlet Node;  !- Outlet Node Name

  Pipe:Adiabatic,
    CoolSysPrimary Demand Outlet Pipe,  !- Name
    CoolSysPrimary Demand Mixer-CoolSysPrimary Demand Outlet Pipe,  !- Inlet Node Name
    CoolSysPrimary Demand Outlet Node;  !- Outlet Node Name

!--------------------------------------------------------------------------------------------
!============================================================================================
!==================================COOLSYSPRIMARY CONTROLS===================================
!--------------------------------------PLANT SIZING------------------------------------------

  Sizing:Plant,
    CoolSysPrimary,          !- Plant or Condenser Loop Name
    COOLING,                 !- Loop Type
    6.7,                     !- Design Loop Exit Temperature {C}
    5.0;                     !- Loop Design Temperature Difference {deltaC}

!--------------------------------------------------------------------------------------------
!----------------------------------------SETPOINT--------------------------------------------

  SetpointManager:Scheduled,
    CoolSysPrimary Loop Setpoint Manager,  !- Name
    Temperature,             !- Control Variable
    CoolSysPrimary Loop Temp Schedule,  !- Schedule Name
    CoolSysPrimary Supply Outlet Node;  !- Setpoint Node or NodeList Name

!--------------------------------------------------------------------------------------------
!----------------------------------PLANTEQUIPMENTSCHEMES-------------------------------------

  PlantEquipmentOperationSchemes,
    CoolSysPrimary Loop Operation Scheme List,  !- Name
    PlantEquipmentOperation:CoolingLoad,  !- Control Scheme 1 Object Type
    CoolSysPrimary Operation Scheme,  !- Control Scheme 1 Name
    PlantOnSchedule;         !- Control Scheme 1 Schedule Name

  PlantEquipmentOperation:CoolingLoad,
    CoolSysPrimary Operation Scheme,  !- Name
    0.0,                     !- Load Range 1 Lower Limit {W}
    100000000000000,         !- Load Range 1 Upper Limit {W}
    CoolSysPrimary Equipment List;  !- Range 1 Equipment List Name

  PlantEquipmentList,
    CoolSysPrimary Equipment List,  !- Name
    Chiller:Electric,        !- Equipment 1 Object Type
    CoolSysPrimary Chiller;  !- Equipment 1 Name

!--------------------------------------------------------------------------------------------
!---------------------------------LOOP SPECIFIC SCHEDULES------------------------------------

  Schedule:Compact,
    CoolSysPrimary Loop Temp Schedule,  !- Name
    Temperature,             !- Schedule Type Limits Name
    Through: 12/31,          !- Field 1
    For: AllDays,            !- Field 2
    Until: 24:00,6.7;        !- Field 3

!--------------------------------------------------------------------------------------------
!============================================================================================

  Coil:Cooling:Water,
    VAV WITH REHEAT_CoolC,   !- Name
    ALWAYS_ON,               !- Availability Schedule Name
    AUTOSIZE,                !- Design Water Flow Rate {m3/s}
    AUTOSIZE,                !- Design Air Flow Rate {m3/s}
    AUTOSIZE,                !- Design Inlet Water Temperature {C}
    AUTOSIZE,                !- Design Inlet Air Temperature {C}
    AUTOSIZE,                !- Design Outlet Air Temperature {C}
    AUTOSIZE,                !- Design Inlet Air Humidity Ratio {kgWater/kgDryAir}
    AUTOSIZE,                !- Design Outlet Air Humidity Ratio {kgWater/kgDryAir}
    VAV WITH REHEAT_CoolCDemand Inlet Node,  !- Water Inlet Node Name
    VAV WITH REHEAT_CoolCDemand Outlet Node,  !- Water Outlet Node Name
    VAV WITH REHEAT_OA-VAV WITH REHEAT_CoolCNode,  !- Air Inlet Node Name
    VAV WITH REHEAT_CoolC-VAV WITH REHEAT FanNode,  !- Air Outlet Node Name
    SIMPLEANALYSIS,          !- Type of Analysis
    CROSSFLOW;               !- Heat Exchanger Configuration

!---------------------------------------------------------------------------------------------
!--------------------------------PLANTEQUIPMENTSCHEMES----------------------------------------

  PlantEquipmentOperationSchemes,
    CoolSysSecondary Loop Operation Scheme List,  !- Name
    PlantEquipmentOperation:CoolingLoad,  !- Control Scheme 1 Object Type
    CoolSysSecondary Operation Scheme,  !- Control Scheme 1 Name
    PlantOnSchedule;         !- Control Scheme 1 Schedule Name

  PlantEquipmentOperation:CoolingLoad,
    CoolSysSecondary Operation Scheme,  !- Name
    0.0,                     !- Load Range 1 Lower Limit {W}
    1000000000,              !- Load Range 1 Upper Limit {W}
    CoolSysSecondary TES supply;  !- Range 1 Equipment List Name

  PlantEquipmentList,
    CoolSysSecondary TES supply,  !- Name
    ThermalStorage:ChilledWater:Stratified,  !- Equipment 1 Object Type
    Chilled Water Storage Tank 1;  !- Equipment 1 Name

!--------------------------------------------------------------------------------------------
!------------------------------------SPECIFIC SCHEDULES--------------------------------------

  Schedule:Compact,
    TES Charge Schedule,     !- Name
    on/off,                  !- Schedule Type Limits Name
    Through: 12/31,          !- Field 1
    For: Weekdays SummerDesignDay, !- Field 2
    Until: 10:00,1.0,        !- Field 3
    Until: 17:00,0.0,        !- Field 5
    Until: 24:00,1.0,        !- Field 7
    For: Saturday WinterDesignDay, !- Field 9
    Until: 12:00,1.0,        !- Field 10
    Until: 18:00,0.0,        !- Field 12
    Until: 24:00,1.0,        !- Field 14
    For: Sunday Holidays AllOtherDays, !- Field 16
    Until: 24:00,1.0;        !- Field 17

  Schedule:Compact,
    CW Tank Temp Schedule,   !- Name
    Temperature,             !- Schedule Type Limits Name
    Through: 12/31,          !- Field 1
    For: AllDays,            !- Field 2
    Until: 24:00,7.5;        !- Field 3

!--------------------------------------------------------------------------------------------
!============================================================================================
!===========================CONDENSER LOOP (CONDENSER LOOP)======================

  PlantLoop,
    Condenser Loop,          !- Name
    WATER,                   !- Fluid Type
    ,                        !- User Defined Fluid Type
    Condenser Loop Operation Scheme List,  !- Plant Equipment Operation Scheme Name
    Condenser Loop Supply Outlet Node,  !- Loop Temperature Setpoint Node Name
    80.0,                    !- Maximum Loop Temperature {C}
    5.0,                     !- Minimum Loop Temperature {C}
    AUTOSIZE,                !- Maximum Loop Flow Rate {m3/s}
    0.0,                     !- Minimum Loop Flow Rate {m3/s}
    AUTOSIZE,                !- Plant Loop Volume {m3}
    Condenser Loop Supply Inlet Node,  !- Plant Side Inlet Node Name
    Condenser Loop Supply Outlet Node,  !- Plant Side Outlet Node Name
    Condenser Loop Supply Branches,  !- Plant Side Branch List Name
    Condenser Loop Supply Connectors,  !- Plant Side Connector List Name
    Condenser Loop Demand Inlet Node,  !- Demand Side Inlet Node Name
    Condenser Loop Demand Outlet Node,  !- Demand Side Outlet Node Name
    Condenser Loop Demand Branches,  !- Demand Side Branch List Name
    Condenser Loop Demand Connectors,  !- Demand Side Connector List Name
    SequentialLoad;          !- Load Distribution Scheme

!========================CONDENSER LOOP SUPPLY SIDE LOOP CONSTRUCTION========================
!-----------------------LISTING AND MODELING ALL THE SUPPLY SIDE BRANCHES--------------------

  BranchList,
    Condenser Loop Supply Branches,  !- Name
    Condenser Loop Supply Inlet Branch,  !- Branch 1 Name
    Condenser Loop Supply Equipment Branch,  !- Branch 2 Name
    Condenser Loop Supply Equipment Bypass Branch,  !- Branch 3 Name
    Condenser Loop Supply Outlet Branch;  !- Branch 4 Name

  Branch,
    Condenser Loop Supply Inlet Branch,  !- Name
    ,                        !- Pressure Drop Curve Name
    Pump:ConstantSpeed,      !- Component 1 Object Type
    Condenser Loop Pump,     !- Component 1 Name
    Condenser Loop Supply Inlet Node,  !- Component 1 Inlet Node Name
    Condenser Loop Pump-Condenser Loop CoolTowerNodeviaConnector;  !- Component 1 Outlet Node Name

  Branch,
    Condenser Loop Supply Equipment Branch,  !- Name
    ,                        !- Pressure Drop Curve Name
    CoolingTower:SingleSpeed,!- Component 1 Object Type
    Condenser Loop CoolTower,!- Component 1 Name
    Condenser Loop Pump-Condenser Loop CoolTowerNode,  !- Component 1 Inlet Node Name
    Condenser Loop Supply Equipment Outlet Node;  !- Component 1 Outlet Node Name

  Branch,
    Condenser Loop Supply Equipment Bypass Branch,  !- Name
    ,                        !- Pressure Drop Curve Name
    Pipe:Adiabatic,          !- Component 1 Object Type
    Condenser Loop Supply Equipment Bypass Pipe,  !- Component 1 Name
    Condenser Loop Supply Equip Bypass Inlet Node,  !- Component 1 Inlet Node Name
    Condenser Loop Supply Equip Bypass Outlet Node;  !- Component 1 Outlet Node Name

  Branch,
    Condenser Loop Supply Outlet Branch,  !- Name
    ,                        !- Pressure Drop Curve Name
    Pipe:Adiabatic,          !- Component 1 Object Type
    Condenser Loop Supply Outlet Pipe,  !- Component 1 Name
    Condenser Loop Supply Mixer-Condenser Loop Supply Outlet Pipe,  !- Component 1 Inlet Node Name
    Condenser Loop Supply Outlet Node;  !- Component 1 Outlet Node Name

!---------------------------------------------------------------------------------------------
!---------------------LISTING AND MODELING ALL THE SUPPLY SIDE CONNECTORS---------------------

  ConnectorList,
    Condenser Loop Supply Connectors,  !- Name
    Connector:Splitter,      !- Connector 1 Object Type
    Condenser Loop Supply Splitter,  !- Connector 1 Name