! PlantPressureDrop.idf
!
! Basic file description:
! This input file is a plant-only simulation using the PLANT LOAD PROFILE object; no zones are simulated.
! The PLANT LOAD PROFILE object allows a scheduled load to be connected to the plant demand side loop.
! This is useful when the building plant load profile is already known.  It's also useful for testing the
! operation of plant supply side components.
! This file has been extended to also use pressure drop components.  A pipe pressure drop has been placed
! in the loop at the supply side outlet which accounts for frictional and minor losses in the loop
! Additionally, a quadratic pressure drop curve has been placed in the loop to simulate a generalized
! pressure drop expression, such as for a heat pump pressure drop fit.
! The plant loop pressure drop calculation type is set to PumpPowerCorrection to accomodate pressure drop calcs.
! Run:      1 design day.
! Building: None.
! System:   None.
! Plant:    PLANT LOAD PROFILE with DistrictHeating and Pressure drop components.

  Version,24.1;

  Building,
    Plant Load Profile Example,  !- Name
    0.0,                     !- North Axis {deg}
    Suburbs,                 !- Terrain
    0.04,                    !- Loads Convergence Tolerance Value {W}
    0.04,                    !- Temperature Convergence Tolerance Value {deltaC}
    FullInteriorAndExterior, !- Solar Distribution
    25,                      !- Maximum Number of Warmup Days
    6;                       !- Minimum Number of Warmup Days

  Timestep,6;

  GlobalGeometryRules,
    UpperLeftCorner,         !- Starting Vertex Position
    CounterClockWise,        !- Vertex Entry Direction
    Relative;                !- Coordinate System

  Site:Location,
    CHICAGO_IL_USA_WMO_725300,  !- Name
    42.00,                   !- Latitude {deg}
    -87.88,                  !- Longitude {deg}
    -6.00,                   !- Time Zone {hr}
    190.00;                  !- Elevation {m}

 ! CHICAGO_IL_USA Annual Cooling (DB=>MWB) 1%, MaxDB=31.5°C MWB=23°C

  SizingPeriod:DesignDay,
    CHICAGO Ann Clg 1% Condns DB=>MWB,  !- Name
    7,                       !- Month
    21,                      !- Day of Month
    SummerDesignDay,         !- Day Type
    31.5,                    !- Maximum Dry-Bulb Temperature {C}
    10.7,                    !- Daily Dry-Bulb Temperature Range {deltaC}
    ,                        !- Dry-Bulb Temperature Range Modifier Type
    ,                        !- Dry-Bulb Temperature Range Modifier Day Schedule Name
    Wetbulb,                 !- Humidity Condition Type
    23,                      !- Wetbulb or DewPoint at Maximum Dry-Bulb {C}
    ,                        !- Humidity Condition Day Schedule Name
    ,                        !- Humidity Ratio at Maximum Dry-Bulb {kgWater/kgDryAir}
    ,                        !- Enthalpy at Maximum Dry-Bulb {J/kg}
    ,                        !- Daily Wet-Bulb Temperature Range {deltaC}
    99063.,                  !- Barometric Pressure {Pa}
    5.3,                     !- Wind Speed {m/s}
    230,                     !- Wind Direction {deg}
    No,                      !- Rain Indicator
    No,                      !- Snow Indicator
    No,                      !- Daylight Saving Time Indicator
    ASHRAEClearSky,          !- Solar Model Indicator
    ,                        !- Beam Solar Day Schedule Name
    ,                        !- Diffuse Solar Day Schedule Name
    ,                        !- ASHRAE Clear Sky Optical Depth for Beam Irradiance (taub) {dimensionless}
    ,                        !- ASHRAE Clear Sky Optical Depth for Diffuse Irradiance (taud) {dimensionless}
    1.00;                    !- Sky Clearness

 ! CHICAGO_IL_USA Annual Heating 99%, MaxDB=-17.3°C

  SizingPeriod:DesignDay,
    CHICAGO Ann Htg 99% Condns DB,  !- Name
    1,                       !- Month
    21,                      !- Day of Month
    WinterDesignDay,         !- Day Type
    -17.3,                   !- Maximum Dry-Bulb Temperature {C}
    0.0,                     !- Daily Dry-Bulb Temperature Range {deltaC}
    ,                        !- Dry-Bulb Temperature Range Modifier Type
    ,                        !- Dry-Bulb Temperature Range Modifier Day Schedule Name
    Wetbulb,                 !- Humidity Condition Type
    -17.3,                   !- Wetbulb or DewPoint at Maximum Dry-Bulb {C}
    ,                        !- Humidity Condition Day Schedule Name
    ,                        !- Humidity Ratio at Maximum Dry-Bulb {kgWater/kgDryAir}
    ,                        !- Enthalpy at Maximum Dry-Bulb {J/kg}
    ,                        !- Daily Wet-Bulb Temperature Range {deltaC}
    99063.,                  !- Barometric Pressure {Pa}
    4.9,                     !- Wind Speed {m/s}
    270,                     !- Wind Direction {deg}
    No,                      !- Rain Indicator
    No,                      !- Snow Indicator
    No,                      !- Daylight Saving Time Indicator
    ASHRAEClearSky,          !- Solar Model Indicator
    ,                        !- Beam Solar Day Schedule Name
    ,                        !- Diffuse Solar Day Schedule Name
    ,                        !- ASHRAE Clear Sky Optical Depth for Beam Irradiance (taub) {dimensionless}
    ,                        !- ASHRAE Clear Sky Optical Depth for Diffuse Irradiance (taud) {dimensionless}
    0.00;                    !- Sky Clearness

  RunPeriod,
    Run Period 1,            !- Name
    1,                       !- Begin Month
    1,                       !- Begin Day of Month
    ,                        !- Begin Year
    12,                      !- End Month
    31,                      !- End Day of Month
    ,                        !- End Year
    Tuesday,                 !- Day of Week for Start Day
    Yes,                     !- Use Weather File Holidays and Special Days
    Yes,                     !- Use Weather File Daylight Saving Period
    No,                      !- Apply Weekend Holiday Rule
    Yes,                     !- Use Weather File Rain Indicators
    Yes;                     !- Use Weather File Snow Indicators

  SimulationControl,
    NO,                      !- Do Zone Sizing Calculation
    NO,                      !- Do System Sizing Calculation
    NO,                      !- Do Plant Sizing Calculation
    YES,                     !- Run Simulation for Sizing Periods
    NO,                      !- Run Simulation for Weather File Run Periods
    No,                      !- Do HVAC Sizing Simulation for Sizing Periods
    1;                       !- Maximum Number of HVAC Sizing Simulation Passes

  PlantLoop,
    Main Loop,               !- Name
    WATER,                   !- Fluid Type
    ,                        !- User Defined Fluid Type
    Main Loop Operation,     !- Plant Equipment Operation Scheme Name
    Supply Outlet Node,      !- Loop Temperature Setpoint Node Name
    100,                     !- Maximum Loop Temperature {C}
    3,                       !- Minimum Loop Temperature {C}
    0.003,                   !- Maximum Loop Flow Rate {m3/s}
    0,                       !- Minimum Loop Flow Rate {m3/s}
    autocalculate,           !- Plant Loop Volume {m3}
    Supply Inlet Node,       !- Plant Side Inlet Node Name
    Supply Outlet Node,      !- Plant Side Outlet Node Name
    Supply Branches,         !- Plant Side Branch List Name
    Supply Connectors,       !- Plant Side Connector List Name
    Demand Inlet Node,       !- Demand Side Inlet Node Name
    Demand Outlet Node,      !- Demand Side Outlet Node Name
    Demand Branches,         !- Demand Side Branch List Name
    Demand Connectors,       !- Demand Side Connector List Name
    OPTIMAL,                 !- Load Distribution Scheme
    ,                        !- Availability Manager List Name
    ,                        !- Plant Loop Demand Calculation Scheme
    ,                        !- Common Pipe Simulation
    PumpPowerCorrection;     !- Pressure Simulation Type

  SetpointManager:Scheduled,
    Main Loop Setpoint Manager,  !- Name
    Temperature,             !- Control Variable
    Main Loop Temp Sch,      !- Schedule Name
    Main Loop Setpoint Node List;  !- Setpoint Node or NodeList Name

  NodeList,
    Main Loop Setpoint Node List,  !- Name
    Supply Outlet Node;      !- Node 1 Name

  PlantEquipmentOperationSchemes,
    Main Loop Operation,     !- Name
    PlantEquipmentOperation:HeatingLoad,  !- Control Scheme 1 Object Type
    Purchased Only,          !- Control Scheme 1 Name
    AlwaysOnSchedule;        !- Control Scheme 1 Schedule Name

  PlantEquipmentOperation:HeatingLoad,
    Purchased Only,          !- Name
    0,                       !- Load Range 1 Lower Limit {W}
    10000000,                !- Load Range 1 Upper Limit {W}
    Heating Plant;           !- Range 1 Equipment List Name

  PlantEquipmentList,
    Heating Plant,           !- Name
    DistrictHeating:Water,         !- Equipment 1 Object Type
    Purchased Heating;       !- Equipment 1 Name

  BranchList,
    Supply Branches,         !- Name
    Supply Inlet Branch,     !- Branch 1 Name
    Heating Branch,          !- Branch 2 Name
    Supply Outlet Branch;    !- Branch 3 Name

  ConnectorList,
    Supply Connectors,       !- Name
    Connector:Splitter,      !- Connector 1 Object Type
    Supply Splitter,         !- Connector 1 Name
    Connector:Mixer,         !- Connector 2 Object Type
    Supply Mixer;            !- Connector 2 Name

  Connector:Splitter,
    Supply Splitter,         !- Name
    Supply Inlet Branch,     !- Inlet Branch Name
    Heating Branch;          !- Outlet Branch 1 Name

  Connector:Mixer,
    Supply Mixer,            !- Name
    Supply Outlet Branch,    !- Outlet Branch Name
    Heating Branch;          !- Inlet Branch 1 Name

  Branch,
    Supply Inlet Branch,     !- Name
    ,                        !- Pressure Drop Curve Name
    Pump:VariableSpeed,      !- Component 1 Object Type
    Pump,                    !- Component 1 Name
    Supply Inlet Node,       !- Component 1 Inlet Node Name
    Supply Pump-Heating Node;!- Component 1 Outlet Node Name

  Pump:VariableSpeed,
    Pump,                    !- Name
    Supply Inlet Node,       !- Inlet Node Name
    Supply Pump-Heating Node,!- Outlet Node Name
    0.005,                   !- Design Maximum Flow Rate {m3/s}
    300000,                  !- Design Pump Head {Pa}
    2250,                    !- Design Power Consumption {W}
    0.87,                    !- Motor Efficiency
    0.0,                     !- Fraction of Motor Inefficiencies to Fluid Stream
    0,                       !- Coefficient 1 of the Part Load Performance Curve
    1,                       !- Coefficient 2 of the Part Load Performance Curve
    0,                       !- Coefficient 3 of the Part Load Performance Curve
    0,                       !- Coefficient 4 of the Part Load Performance Curve
    0,                       !- Design Minimum Flow Rate {m3/s}
    INTERMITTENT;            !- Pump Control Type

  !Since we are doing pressure drop simulation for this file, the pump power
  ! entered above will not be used.  Instead it will be calculated based on
  ! current loop conditions.  An example calculation from a single simulation step:
  !  m_dot = 2 {kg/s}
  !  rho   ~ 1000 {kg/m3}
  !  v_dot = m_dot / rho = 0.002 {m3/s}
  !  eta   = Rated Flow Rate * Rated Pump Head / Rated Power Consumption (from pump object) = 0.667 {-}
  !  DP    = 427271 {Pa}  (calculated at each time step by pressure system)
  !  Power = DP * v_dot / eta ~ 1280 {Pa}
  !Using pump power as given would provide great over estimation at that time step

  Branch,
    Heating Branch,          !- Name
    ,                        !- Pressure Drop Curve Name
    DistrictHeating:Water,         !- Component 1 Object Type
    Purchased Heating,       !- Component 1 Name
    Supply Heating Inlet Node,  !- Component 1 Inlet Node Name
    Supply Heating Outlet Node;  !- Component 1 Outlet Node Name

  DistrictHeating:Water,
    Purchased Heating,       !- Name
    Supply Heating Inlet Node,  !- Hot Water Inlet Node Name
    Supply Heating Outlet Node,  !- Hot Water Outlet Node Name
    1000000;                 !- Nominal Capacity {W}

  Curve:Functional:PressureDrop,
    PressureMinorAndFriction,!- Name
    0.05,                    !- Diameter {m}
    53.8,                    !- Minor Loss Coefficient {dimensionless}
    200,                     !- Length {m}
    ,                        !- Roughness {m}
    0.008;                   !- Fixed Friction Factor

  Branch,
    Supply Outlet Branch,    !- Name
    PressureMinorAndFriction,!- Pressure Drop Curve Name
    Pipe:Adiabatic,          !- Component 1 Object Type
    Supply Outlet Pipe,      !- Component 1 Name
    Supply Heating-Pipe Node,!- Component 1 Inlet Node Name
    Supply Outlet Node;      !- Component 1 Outlet Node Name

  Pipe:Adiabatic,
    Supply Outlet Pipe,      !- Name
    Supply Heating-Pipe Node,!- Inlet Node Name
    Supply Outlet Node;      !- Outlet Node Name

  BranchList,
    Demand Branches,         !- Name
    Demand Inlet Branch,     !- Branch 1 Name
    Load Profile Branch 1,   !- Branch 2 Name
    Demand Outlet Branch;    !- Branch 3 Name

  ConnectorList,
    Demand Connectors,       !- Name
    Connector:Splitter,      !- Connector 1 Object Type
    Demand Splitter,         !- Connector 1 Name
    Connector:Mixer,         !- Connector 2 Object Type
    Demand Mixer;            !- Connector 2 Name

  Connector:Splitter,
    Demand Splitter,         !- Name
    Demand Inlet Branch,     !- Inlet Branch Name
    Load Profile Branch 1;   !- Outlet Branch 1 Name

  Connector:Mixer,
    Demand Mixer,            !- Name
    Demand Outlet Branch,    !- Outlet Branch Name
    Load Profile Branch 1;   !- Inlet Branch 1 Name

    !Note that this curve represents DP {Pa} as a function of branch mdot {kg/s}

  Curve:Quadratic,
    QuadraticPressureCurve,  !- Name
    320000,                  !- Coefficient1 Constant
    20000,                   !- Coefficient2 x
    5500,                    !- Coefficient3 x**2
    0,                       !- Minimum Value of x
    3;                       !- Maximum Value of x

  Branch,
    Demand Inlet Branch,     !- Name
    QuadraticPressureCurve,  !- Pressure Drop Curve Name
    Pipe:Adiabatic,          !- Component 1 Object Type
    Demand Inlet Pipe,       !- Component 1 Name
    Demand Inlet Node,       !- Component 1 Inlet Node Name
    Demand Pipe-Load Profile Node;  !- Component 1 Outlet Node Name

  Pipe:Adiabatic,
    Demand Inlet Pipe,       !- Name
    Demand Inlet Node,       !- Inlet Node Name
    Demand Pipe-Load Profile Node;  !- Outlet Node Name

  Branch,
    Load Profile Branch 1,   !- Name
    ,                        !- Pressure Drop Curve Name
    LoadProfile:Plant,       !- Component 1 Object Type
    Load Profile 1,          !- Component 1 Name
    Demand Load Profile 1 Inlet Node,  !- Component 1 Inlet Node Name
    Demand Load Profile 1 Outlet Node;  !- Component 1 Outlet Node Name

  LoadProfile:Plant,
    Load Profile 1,          !- Name
    Demand Load Profile 1 Inlet Node,  !- Inlet Node Name
    Demand Load Profile 1 Outlet Node,  !- Outlet Node Name
    Load Profile 1 Load Schedule,  !- Load Schedule Name
    0.002,                   !- Peak Flow Rate {m3/s}
    Load Profile 1 Flow Frac Schedule,  !- Flow Rate Fraction Schedule Name
    Water;                   !- Plant Loop Fluid Type

  Branch,
    Demand Outlet Branch,    !- Name
    ,                        !- Pressure Drop Curve Name
    Pipe:Adiabatic,          !- Component 1 Object Type
    Demand Outlet Pipe,      !- Component 1 Name
    Demand Load Profile-Pipe Node,  !- Component 1 Inlet Node Name
    Demand Outlet Node;      !- Component 1 Outlet Node Name

  Pipe:Adiabatic,
    Demand Outlet Pipe,      !- Name
    Demand Load Profile-Pipe Node,  !- Inlet Node Name
    Demand Outlet Node;      !- Outlet Node Name

  ScheduleTypeLimits,
    Any Number;              !- Name

  ScheduleTypeLimits,
    On/Off,                  !- Name
    0,                       !- Lower Limit Value
    1,                       !- Upper Limit Value
    DISCRETE;                !- Numeric Type

  Schedule:Compact,
    Main Loop Temp Sch,      !- Name
    Any Number,              !- Schedule Type Limits Name
    THROUGH: 12/31,          !- Field 1
    FOR: AllDays,            !- Field 2
    UNTIL: 24:00,60.0;       !- Field 3

  Schedule:Compact,
    AlwaysOnSchedule,        !- Name
    On/Off,                  !- Schedule Type Limits Name
    THROUGH: 12/31,          !- Field 1
    FOR: AllDays,            !- Field 2
    UNTIL: 24:00,1;          !- Field 3

  Schedule:Compact,
    Load Profile 1 Load Schedule,  !- Name
    Any Number,              !- Schedule Type Limits Name
    THROUGH: 12/31,          !- Field 1
    FOR: AllDays,            !- Field 2
    UNTIL: 4:00,8000,        !- Field 3
    UNTIL: 8:00,6000,        !- Field 5
    UNTIL: 9:00,0,           !- Field 7
    UNTIL: 12:00,6000,       !- Field 9
    UNTIL: 24:00,10000;      !- Field 11

  Schedule:Compact,
    Load Profile 1 Flow Frac Schedule,  !- Name
    Any Number,              !- Schedule Type Limits Name
    THROUGH: 12/31,          !- Field 1
    FOR: AllDays,            !- Field 2
    UNTIL: 24:00,1.0;        !- Field 3

  Output:VariableDictionary,IDF;

  Output:Variable,*,System Node Temperature,Hourly;

  Output:Variable,*,System Node Pressure,Hourly;

  Output:Variable,*,System Node Mass Flow Rate,Hourly;

  Output:Variable,*,Plant Branch Pressure Difference,Hourly;

  Output:Variable,*,Plant Demand Side Loop Pressure Difference,Hourly;

  Output:Variable,*,Plant Supply Side Loop Pressure Difference,Hourly;

  Output:Variable,*,Plant Loop Pressure Difference,Hourly;

  Output:Variable,*,Pump Electricity Rate,Hourly;

  Output:Meter,Heating:DistrictHeatingWater,Daily;

  Output:Meter:MeterFileOnly,Heating:DistrictHeatingWater,monthly;

  Output:Meter:MeterFileOnly,Heating:DistrictHeatingWater,runperiod;

  Output:Meter:MeterFileOnly,Electricity:Facility,monthly;

  Output:Meter:MeterFileOnly,Electricity:Plant,monthly;

  Output:Meter:MeterFileOnly,Electricity:Facility,runperiod;

  Output:Meter:MeterFileOnly,Electricity:Plant,runperiod;

  OutputControl:Table:Style,
    HTML;                    !- Column Separator

  Output:Table:SummaryReports,
    AllSummary;              !- Report 1 Name

