! PlantLoopChainHeating.idf
!
! Basic file description:
! This input file is a plant-only simulation using the LoadProfile:Plant object; no zones are simulated.
! The main purpose is to demonstrate plant heat exchangers to connect multiple loops. There are three
! plant loops: 1) the "Use Loop" contains the load profile for heating load, 2) the "Transfer Loop" ,
! and, 3) the "Source Loop".  The heating load placed on the Use Loop is met by a Heat exchanger connecting the Transfer
! loop to the Use Loop.  The heating load placed on the Transfer Loop is met by a heat exchanger connection the Source loop to the
! Transfer Loop.  District heating meets the heating load on the Source Loop.
! Run:      2 design days
! Building: None.
! System:   None.
! Plant:    A chain of 3 plant loops that connect a LoadProfile:Plant to DistrictHeating by heat exchangers

  Version,24.1;

  Building,
    Plant Load Profile Example,  !- Name
    0.0,                     !- North Axis {deg}
    Suburbs,                 !- Terrain
    0.04,                    !- Loads Convergence Tolerance Value {W}
    0.04,                    !- Temperature Convergence Tolerance Value {deltaC}
    FullInteriorAndExterior, !- Solar Distribution
    25,                      !- Maximum Number of Warmup Days
    6;                       !- Minimum Number of Warmup Days

  Timestep,6;

  GlobalGeometryRules,
    UpperLeftCorner,         !- Starting Vertex Position
    CounterClockWise,        !- Vertex Entry Direction
    Relative;                !- Coordinate System

  Site:Location,
    CHICAGO_IL_USA_WMO_725300,  !- Name
    42.00,                   !- Latitude {deg}
    -87.88,                  !- Longitude {deg}
    -6.00,                   !- Time Zone {hr}
    190.00;                  !- Elevation {m}

 ! CHICAGO_IL_USA Annual Cooling (DB=>MWB) 1%, MaxDB=31.5°C MWB=23°C

  SizingPeriod:DesignDay,
    CHICAGO Ann Clg 1% Condns DB=>MWB,  !- Name
    7,                       !- Month
    21,                      !- Day of Month
    SummerDesignDay,         !- Day Type
    31.5,                    !- Maximum Dry-Bulb Temperature {C}
    10.7,                    !- Daily Dry-Bulb Temperature Range {deltaC}
    ,                        !- Dry-Bulb Temperature Range Modifier Type
    ,                        !- Dry-Bulb Temperature Range Modifier Day Schedule Name
    Wetbulb,                 !- Humidity Condition Type
    23,                      !- Wetbulb or DewPoint at Maximum Dry-Bulb {C}
    ,                        !- Humidity Condition Day Schedule Name
    ,                        !- Humidity Ratio at Maximum Dry-Bulb {kgWater/kgDryAir}
    ,                        !- Enthalpy at Maximum Dry-Bulb {J/kg}
    ,                        !- Daily Wet-Bulb Temperature Range {deltaC}
    99063.,                  !- Barometric Pressure {Pa}
    5.3,                     !- Wind Speed {m/s}
    230,                     !- Wind Direction {deg}
    No,                      !- Rain Indicator
    No,                      !- Snow Indicator
    No,                      !- Daylight Saving Time Indicator
    ASHRAEClearSky,          !- Solar Model Indicator
    ,                        !- Beam Solar Day Schedule Name
    ,                        !- Diffuse Solar Day Schedule Name
    ,                        !- ASHRAE Clear Sky Optical Depth for Beam Irradiance (taub) {dimensionless}
    ,                        !- ASHRAE Clear Sky Optical Depth for Diffuse Irradiance (taud) {dimensionless}
    1.00;                    !- Sky Clearness

 ! CHICAGO_IL_USA Annual Heating 99%, MaxDB=-17.3°C

  SizingPeriod:DesignDay,
    CHICAGO Ann Htg 99% Condns DB,  !- Name
    1,                       !- Month
    21,                      !- Day of Month
    WinterDesignDay,         !- Day Type
    -17.3,                   !- Maximum Dry-Bulb Temperature {C}
    0.0,                     !- Daily Dry-Bulb Temperature Range {deltaC}
    ,                        !- Dry-Bulb Temperature Range Modifier Type
    ,                        !- Dry-Bulb Temperature Range Modifier Day Schedule Name
    Wetbulb,                 !- Humidity Condition Type
    -17.3,                   !- Wetbulb or DewPoint at Maximum Dry-Bulb {C}
    ,                        !- Humidity Condition Day Schedule Name
    ,                        !- Humidity Ratio at Maximum Dry-Bulb {kgWater/kgDryAir}
    ,                        !- Enthalpy at Maximum Dry-Bulb {J/kg}
    ,                        !- Daily Wet-Bulb Temperature Range {deltaC}
    99063.,                  !- Barometric Pressure {Pa}
    4.9,                     !- Wind Speed {m/s}
    270,                     !- Wind Direction {deg}
    No,                      !- Rain Indicator
    No,                      !- Snow Indicator
    No,                      !- Daylight Saving Time Indicator
    ASHRAEClearSky,          !- Solar Model Indicator
    ,                        !- Beam Solar Day Schedule Name
    ,                        !- Diffuse Solar Day Schedule Name
    ,                        !- ASHRAE Clear Sky Optical Depth for Beam Irradiance (taub) {dimensionless}
    ,                        !- ASHRAE Clear Sky Optical Depth for Diffuse Irradiance (taud) {dimensionless}
    0.00;                    !- Sky Clearness

  RunPeriod,
    Annual,                  !- Name
    1,                       !- Begin Month
    1,                       !- Begin Day of Month
    ,                        !- Begin Year
    12,                      !- End Month
    31,                      !- End Day of Month
    ,                        !- End Year
    Tuesday,                 !- Day of Week for Start Day
    Yes,                     !- Use Weather File Holidays and Special Days
    Yes,                     !- Use Weather File Daylight Saving Period
    No,                      !- Apply Weekend Holiday Rule
    Yes,                     !- Use Weather File Rain Indicators
    Yes;                     !- Use Weather File Snow Indicators

  SimulationControl,
    NO,                      !- Do Zone Sizing Calculation
    NO,                      !- Do System Sizing Calculation
    NO,                      !- Do Plant Sizing Calculation
    YES,                     !- Run Simulation for Sizing Periods
    NO,                      !- Run Simulation for Weather File Run Periods
    No,                      !- Do HVAC Sizing Simulation for Sizing Periods
    1;                       !- Maximum Number of HVAC Sizing Simulation Passes

!___________________________________________________________________________________

  PlantLoop,
    Use Loop,                !- Name
    WATER,                   !- Fluid Type
    ,                        !- User Defined Fluid Type
    Use Loop Operation,      !- Plant Equipment Operation Scheme Name
    Use Supply Outlet Node,  !- Loop Temperature Setpoint Node Name
    100,                     !- Maximum Loop Temperature {C}
    3,                       !- Minimum Loop Temperature {C}
    0.003,                   !- Maximum Loop Flow Rate {m3/s}
    0,                       !- Minimum Loop Flow Rate {m3/s}
    autocalculate,           !- Plant Loop Volume {m3}
    Use Supply Inlet Node,   !- Plant Side Inlet Node Name
    Use Supply Outlet Node,  !- Plant Side Outlet Node Name
    Use Supply Branches,     !- Plant Side Branch List Name
    Use Supply Connectors,   !- Plant Side Connector List Name
    Use Demand Inlet Node,   !- Demand Side Inlet Node Name
    Use Demand Outlet Node,  !- Demand Side Outlet Node Name
    Use Demand Branches,     !- Demand Side Branch List Name
    Use Demand Connectors,   !- Demand Side Connector List Name
    OPTIMAL;                 !- Load Distribution Scheme

  SetpointManager:Scheduled,
    Use Loop Setpoint Manager,  !- Name
    Temperature,             !- Control Variable
    Use Loop Temp Sch,       !- Schedule Name
    Use Loop Setpoint Node List;  !- Setpoint Node or NodeList Name

  NodeList,
    Use Loop Setpoint Node List,  !- Name
    Use Supply Outlet Node;  !- Node 1 Name

  PlantEquipmentOperationSchemes,
    Use Loop Operation,      !- Name
    PlantEquipmentOperation:Uncontrolled,  !- Control Scheme 1 Object Type
    USE operation,           !- Control Scheme 1 Name
    AlwaysOnSchedule;        !- Control Scheme 1 Schedule Name

  PlantEquipmentOperation:Uncontrolled,
    USE operation,           !- Name
    TRANSFER to USE HX equip;!- Equipment List Name

  PlantEquipmentList,
    TRANSFER to USE HX equip,!- Name
    HeatExchanger:FluidToFluid,  !- Equipment 1 Object Type
    TRANSFER to USE HX;      !- Equipment 1 Name

  BranchList,
    USE Supply Branches,     !- Name
    USE Supply Inlet Branch, !- Branch 1 Name
    USE Heating Branch,      !- Branch 2 Name
    USE Supply Outlet Branch;!- Branch 3 Name

  ConnectorList,
    USE Supply Connectors,   !- Name
    Connector:Splitter,      !- Connector 1 Object Type
    USE Supply Splitter,     !- Connector 1 Name
    Connector:Mixer,         !- Connector 2 Object Type
    USE Supply Mixer;        !- Connector 2 Name

  Connector:Splitter,
    USE Supply Splitter,     !- Name
    USE Supply Inlet Branch, !- Inlet Branch Name
    USE Heating Branch;      !- Outlet Branch 1 Name

  Connector:Mixer,
    USE Supply Mixer,        !- Name
    USE Supply Outlet Branch,!- Outlet Branch Name
    USE Heating Branch;      !- Inlet Branch 1 Name

  Branch,
    USE Supply Inlet Branch, !- Name
    ,                        !- Pressure Drop Curve Name
    Pump:VariableSpeed,      !- Component 1 Object Type
    USE Pump,                !- Component 1 Name
    USE Supply Inlet Node,   !- Component 1 Inlet Node Name
    USE Supply Pump-Heating Node;  !- Component 1 Outlet Node Name

  Pump:VariableSpeed,
    USE Pump,                !- Name
    USE Supply Inlet Node,   !- Inlet Node Name
    USE Supply Pump-Heating Node,  !- Outlet Node Name
    0.005,                   !- Design Maximum Flow Rate {m3/s}
    300000,                  !- Design Pump Head {Pa}
    2250,                    !- Design Power Consumption {W}
    0.87,                    !- Motor Efficiency
    0.0,                     !- Fraction of Motor Inefficiencies to Fluid Stream
    0,                       !- Coefficient 1 of the Part Load Performance Curve
    1,                       !- Coefficient 2 of the Part Load Performance Curve
    0,                       !- Coefficient 3 of the Part Load Performance Curve
    0,                       !- Coefficient 4 of the Part Load Performance Curve
    0,                       !- Design Minimum Flow Rate {m3/s}
    INTERMITTENT;            !- Pump Control Type

  Branch,
    USE Heating Branch,      !- Name
    ,                        !- Pressure Drop Curve Name
    HeatExchanger:FluidToFluid,  !- Component 1 Object Type
    TRANSFER to USE HX,      !- Component 1 Name
    USE Supply Heating Inlet Node,  !- Component 1 Inlet Node Name
    USE Supply Heating Outlet Node;  !- Component 1 Outlet Node Name

  HeatExchanger:FluidToFluid,
    TRANSFER to USE HX,      !- Name
    AlwaysOnSchedule,        !- Availability Schedule Name
    TRANSFER Demand HX Inlet Node,  !- Loop Demand Side Inlet Node Name
    TRANSFER Demand HX Outlet Node,  !- Loop Demand Side Outlet Node Name
    0.003,                   !- Loop Demand Side Design Flow Rate {m3/s}
    USE Supply Heating Inlet Node,  !- Loop Supply Side Inlet Node Name
    USE Supply Heating Outlet Node,  !- Loop Supply Side Outlet Node Name
    0.003,                   !- Loop Supply Side Design Flow Rate {m3/s}
    CrossFlowBothUnMixed,    !- Heat Exchange Model Type
    1500,                    !- Heat Exchanger U-Factor Times Area Value {W/K}
    HeatingSetpointModulated,!- Control Type
    Use Supply Outlet Node,  !- Heat Exchanger Setpoint Node Name
    0.2,                     !- Minimum Temperature Difference to Activate Heat Exchanger {deltaC}
    LoopToLoop;              !- Heat Transfer Metering End Use Type

  Branch,
    USE Supply Outlet Branch,!- Name
    ,                        !- Pressure Drop Curve Name
    Pipe:Adiabatic,          !- Component 1 Object Type
    USE Supply Outlet Pipe,  !- Component 1 Name
    USE Supply Heating-Pipe Node,  !- Component 1 Inlet Node Name
    USE Supply Outlet Node;  !- Component 1 Outlet Node Name

  Pipe:Adiabatic,
    USE Supply Outlet Pipe,  !- Name
    USE Supply Heating-Pipe Node,  !- Inlet Node Name
    USE Supply Outlet Node;  !- Outlet Node Name

  BranchList,
    USE Demand Branches,     !- Name
    USE Demand Inlet Branch, !- Branch 1 Name
    USE Load Profile Branch 1,  !- Branch 2 Name
    USE Demand Outlet Branch;!- Branch 3 Name

  ConnectorList,
    USE Demand Connectors,   !- Name
    Connector:Splitter,      !- Connector 1 Object Type
    USE Demand Splitter,     !- Connector 1 Name
    Connector:Mixer,         !- Connector 2 Object Type
    USE Demand Mixer;        !- Connector 2 Name

  Connector:Splitter,
    USE Demand Splitter,     !- Name
    USE Demand Inlet Branch, !- Inlet Branch Name
    USE Load Profile Branch 1;  !- Outlet Branch 1 Name

  Connector:Mixer,
    USE Demand Mixer,        !- Name
    USE Demand Outlet Branch,!- Outlet Branch Name
    USE Load Profile Branch 1;  !- Inlet Branch 1 Name

  Branch,
    USE Demand Inlet Branch, !- Name
    ,                        !- Pressure Drop Curve Name
    Pipe:Adiabatic,          !- Component 1 Object Type
    USE Demand Inlet Pipe,   !- Component 1 Name
    USE Demand Inlet Node,   !- Component 1 Inlet Node Name
    USE Demand Pipe-Load Profile Node;  !- Component 1 Outlet Node Name

  Pipe:Adiabatic,
    USE Demand Inlet Pipe,   !- Name
    USE Demand Inlet Node,   !- Inlet Node Name
    USE Demand Pipe-Load Profile Node;  !- Outlet Node Name

  Branch,
    USE Load Profile Branch 1,  !- Name
    ,                        !- Pressure Drop Curve Name
    LoadProfile:Plant,       !- Component 1 Object Type
    Load Profile 1,          !- Component 1 Name
    Demand Load Profile 1 Inlet Node,  !- Component 1 Inlet Node Name
    Demand Load Profile 1 Outlet Node;  !- Component 1 Outlet Node Name

  LoadProfile:Plant,
    Load Profile 1,          !- Name
    Demand Load Profile 1 Inlet Node,  !- Inlet Node Name
    Demand Load Profile 1 Outlet Node,  !- Outlet Node Name
    Load Profile 1 Load Schedule,  !- Load Schedule Name
    0.002,                   !- Peak Flow Rate {m3/s}
    Load Profile 1 Flow Frac Schedule,  !- Flow Rate Fraction Schedule Name
    Water;                   !- Plant Loop Fluid Type

  Branch,
    USE Demand Outlet Branch,!- Name
    ,                        !- Pressure Drop Curve Name
    Pipe:Adiabatic,          !- Component 1 Object Type
    USE Demand Outlet Pipe,  !- Component 1 Name
    USE Demand Load Profile-Pipe Node,  !- Component 1 Inlet Node Name
    USE Demand Outlet Node;  !- Component 1 Outlet Node Name

  Pipe:Adiabatic,
    USE Demand Outlet Pipe,  !- Name
    USE Demand Load Profile-Pipe Node,  !- Inlet Node Name
    USE Demand Outlet Node;  !- Outlet Node Name

! END USE Loop
!___________________________________________________________________________________
!
! BEGIN TRANSFER Loop

  PlantLoop,
    TRANSFER Loop,           !- Name
    WATER,                   !- Fluid Type
    ,                        !- User Defined Fluid Type
    TRANSFER Loop Operation, !- Plant Equipment Operation Scheme Name
    TRANSFER Supply Outlet Node,  !- Loop Temperature Setpoint Node Name
    100,                     !- Maximum Loop Temperature {C}
    3,                       !- Minimum Loop Temperature {C}
    0.003,                   !- Maximum Loop Flow Rate {m3/s}
    0,                       !- Minimum Loop Flow Rate {m3/s}
    autocalculate,           !- Plant Loop Volume {m3}
    TRANSFER Supply Inlet Node,  !- Plant Side Inlet Node Name
    TRANSFER Supply Outlet Node,  !- Plant Side Outlet Node Name
    TRANSFER Supply Branches,!- Plant Side Branch List Name
    TRANSFER Supply Connectors,  !- Plant Side Connector List Name
    TRANSFER Demand Inlet Node,  !- Demand Side Inlet Node Name
    TRANSFER Demand Outlet Node,  !- Demand Side Outlet Node Name
    TRANSFER Demand Branches,!- Demand Side Branch List Name
    TRANSFER Demand Connectors,  !- Demand Side Connector List Name
    OPTIMAL;                 !- Load Distribution Scheme

  SetpointManager:Scheduled,
    TRANSFER Loop Setpoint Manager,  !- Name
    Temperature,             !- Control Variable
    TRANSFER Loop Temp Sch,  !- Schedule Name
    TRANSFER Loop Setpoint Node List;  !- Setpoint Node or NodeList Name

  NodeList,
    TRANSFER Loop Setpoint Node List,  !- Name
    TRANSFER Supply Outlet Node;  !- Node 1 Name

  PlantEquipmentOperationSchemes,
    TRANSFER Loop Operation, !- Name
    PlantEquipmentOperation:HeatingLoad,  !- Control Scheme 1 Object Type
    TRANSFER HX,             !- Control Scheme 1 Name
    AlwaysOnSchedule;        !- Control Scheme 1 Schedule Name

  PlantEquipmentOperation:HeatingLoad,
    TRANSFER HX,             !- Name
    0,                       !- Load Range 1 Lower Limit {W}
    10000000,                !- Load Range 1 Upper Limit {W}
    TRANSFER Heating Plant;  !- Range 1 Equipment List Name

  PlantEquipmentList,
    TRANSFER Heating Plant,  !- Name
    HeatExchanger:FluidToFluid,  !- Equipment 1 Object Type
    SOURCE to TRANSFER HX;   !- Equipment 1 Name

  BranchList,
    TRANSFER Supply Branches,!- Name
    TRANSFER Supply Inlet Branch,  !- Branch 1 Name
    TRANSFER Heating Branch, !- Branch 2 Name
    TRANSFER Supply Outlet Branch;  !- Branch 3 Name

  ConnectorList,
    TRANSFER Supply Connectors,  !- Name
    Connector:Splitter,      !- Connector 1 Object Type
    TRANSFER Supply Splitter,!- Connector 1 Name
    Connector:Mixer,         !- Connector 2 Object Type
    TRANSFER Supply Mixer;   !- Connector 2 Name

  Connector:Splitter,
    TRANSFER Supply Splitter,!- Name
    TRANSFER Supply Inlet Branch,  !- Inlet Branch Name
    TRANSFER Heating Branch; !- Outlet Branch 1 Name

  Connector:Mixer,
    TRANSFER Supply Mixer,   !- Name
    TRANSFER Supply Outlet Branch,  !- Outlet Branch Name
    TRANSFER Heating Branch; !- Inlet Branch 1 Name

  Branch,
    TRANSFER Supply Inlet Branch,  !- Name
    ,                        !- Pressure Drop Curve Name
    Pump:VariableSpeed,      !- Component 1 Object Type
    TRANSFER Pump,           !- Component 1 Name
    TRANSFER Supply Inlet Node,  !- Component 1 Inlet Node Name
    TRANSFER Supply Pump-Heating Node;  !- Component 1 Outlet Node Name

  Pump:VariableSpeed,
    TRANSFER Pump,           !- Name
    TRANSFER Supply Inlet Node,  !- Inlet Node Name
    TRANSFER Supply Pump-Heating Node,  !- Outlet Node Name
    0.005,                   !- Design Maximum Flow Rate {m3/s}
    300000,                  !- Design Pump Head {Pa}
    2250,                    !- Design Power Consumption {W}
    0.87,                    !- Motor Efficiency
    0.0,                     !- Fraction of Motor Inefficiencies to Fluid Stream
    0,                       !- Coefficient 1 of the Part Load Performance Curve
    1,                       !- Coefficient 2 of the Part Load Performance Curve
    0,                       !- Coefficient 3 of the Part Load Performance Curve
    0,                       !- Coefficient 4 of the Part Load Performance Curve
    0,                       !- Design Minimum Flow Rate {m3/s}
    INTERMITTENT;            !- Pump Control Type

  Branch,
    TRANSFER Heating Branch, !- Name
    ,                        !- Pressure Drop Curve Name
    HeatExchanger:FluidToFluid,  !- Component 1 Object Type
    SOURCE to TRANSFER HX,   !- Component 1 Name
    TRANSFER Supply Heating Inlet Node,  !- Component 1 Inlet Node Name
    TRANSFER Supply Heating Outlet Node;  !- Component 1 Outlet Node Name

  HeatExchanger:FluidToFluid,
    SOURCE to TRANSFER HX,   !- Name
    AlwaysOnSchedule,        !- Availability Schedule Name
    SOURCE Demand HX Inlet Node,  !- Loop Demand Side Inlet Node Name
    SOURCE Demand HX Outlet Node,  !- Loop Demand Side Outlet Node Name
    0.003,                   !- Loop Demand Side Design Flow Rate {m3/s}
    TRANSFER Supply Heating Inlet Node,  !- Loop Supply Side Inlet Node Name
    TRANSFER Supply Heating Outlet Node,  !- Loop Supply Side Outlet Node Name
    0.003,                   !- Loop Supply Side Design Flow Rate {m3/s}
    CrossFlowSupplyMixedDemandUnMixed,  !- Heat Exchange Model Type
    1500,                    !- Heat Exchanger U-Factor Times Area Value {W/K}
    OperationSchemeModulated,!- Control Type
    TRANSFER Supply Outlet Node,  !- Heat Exchanger Setpoint Node Name
    0.2,                     !- Minimum Temperature Difference to Activate Heat Exchanger {deltaC}
    LoopToLoop;              !- Heat Transfer Metering End Use Type

  Branch,
    TRANSFER Supply Outlet Branch,  !- Name
    ,                        !- Pressure Drop Curve Name
    Pipe:Adiabatic,          !- Component 1 Object Type
    TRANSFER Supply Outlet Pipe,  !- Component 1 Name
    TRANSFER Supply Heating-Pipe Node,  !- Component 1 Inlet Node Name
    TRANSFER Supply Outlet Node;  !- Component 1 Outlet Node Name

  Pipe:Adiabatic,
    TRANSFER Supply Outlet Pipe,  !- Name
    TRANSFER Supply Heating-Pipe Node,  !- Inlet Node Name
    TRANSFER Supply Outlet Node;  !- Outlet Node Name

  BranchList,
    TRANSFER Demand Branches,!- Name
    TRANSFER Demand Inlet Branch,  !- Branch 1 Name
    TRANSFER Demand HX Branch 1,  !- Branch 2 Name
    TRANSFER Demand Outlet Branch;  !- Branch 3 Name

  ConnectorList,
    TRANSFER Demand Connectors,  !- Name
    Connector:Splitter,      !- Connector 1 Object Type
    TRANSFER Demand Splitter,!- Connector 1 Name
    Connector:Mixer,         !- Connector 2 Object Type
    TRANSFER Demand Mixer;   !- Connector 2 Name

  Connector:Splitter,
    TRANSFER Demand Splitter,!- Name
    TRANSFER Demand Inlet Branch,  !- Inlet Branch Name
    TRANSFER Demand HX Branch 1;  !- Outlet Branch 1 Name

  Connector:Mixer,
    TRANSFER Demand Mixer,   !- Name
    TRANSFER Demand Outlet Branch,  !- Outlet Branch Name
    TRANSFER Demand HX Branch 1;  !- Inlet Branch 1 Name

  Branch,
    TRANSFER Demand Inlet Branch,  !- Name
    ,                        !- Pressure Drop Curve Name
    Pipe:Adiabatic,          !- Component 1 Object Type
    TRANSFER Demand Inlet Pipe,  !- Component 1 Name
    TRANSFER Demand Inlet Node,  !- Component 1 Inlet Node Name
    TRANSFER Demand Pipe-Load Profile Node;  !- Component 1 Outlet Node Name

  Pipe:Adiabatic,
    TRANSFER Demand Inlet Pipe,  !- Name
    TRANSFER Demand Inlet Node,  !- Inlet Node Name
    TRANSFER Demand Pipe-Load Profile Node;  !- Outlet Node Name

  Branch,
    TRANSFER Demand HX Branch 1,  !- Name
    ,                        !- Pressure Drop Curve Name
    HeatExchanger:FluidToFluid,  !- Component 1 Object Type
    TRANSFER to USE HX,      !- Component 1 Name
    TRANSFER Demand HX Inlet Node,  !- Component 1 Inlet Node Name
    TRANSFER Demand HX Outlet Node;  !- Component 1 Outlet Node Name

  Branch,
    TRANSFER Demand Outlet Branch,  !- Name
    ,                        !- Pressure Drop Curve Name
    Pipe:Adiabatic,          !- Component 1 Object Type
    TRANSFER Demand Outlet Pipe,  !- Component 1 Name
    TRANSFER Demand Load Profile-Pipe Node,  !- Component 1 Inlet Node Name
    TRANSFER Demand Outlet Node;  !- Component 1 Outlet Node Name

  Pipe:Adiabatic,
    TRANSFER Demand Outlet Pipe,  !- Name
    TRANSFER Demand Load Profile-Pipe Node,  !- Inlet Node Name
    TRANSFER Demand Outlet Node;  !- Outlet Node Name

! END Transfer loop
!_________________________________________________________________________________
!
! BEGIN Source loop

  PlantLoop,
    SOURCE Loop,             !- Name
    WATER,                   !- Fluid Type
    ,                        !- User Defined Fluid Type
    SOURCE Loop Operation,   !- Plant Equipment Operation Scheme Name
    SOURCE Supply Outlet Node,  !- Loop Temperature Setpoint Node Name
    100,                     !- Maximum Loop Temperature {C}
    3,                       !- Minimum Loop Temperature {C}
    0.003,                   !- Maximum Loop Flow Rate {m3/s}
    0,                       !- Minimum Loop Flow Rate {m3/s}
    autocalculate,           !- Plant Loop Volume {m3}
    SOURCE Supply Inlet Node,!- Plant Side Inlet Node Name
    SOURCE Supply Outlet Node,  !- Plant Side Outlet Node Name
    SOURCE Supply Branches,  !- Plant Side Branch List Name
    SOURCE Supply Connectors,!- Plant Side Connector List Name
    SOURCE Demand Inlet Node,!- Demand Side Inlet Node Name
    SOURCE Demand Outlet Node,  !- Demand Side Outlet Node Name
    SOURCE Demand Branches,  !- Demand Side Branch List Name
    SOURCE Demand Connectors,!- Demand Side Connector List Name
    OPTIMAL;                 !- Load Distribution Scheme

  SetpointManager:Scheduled,
    SOURCE Loop Setpoint Manager,  !- Name
    Temperature,             !- Control Variable
    SOURCE Loop Temp Sch,    !- Schedule Name
    SOURCE Loop Setpoint Node List;  !- Setpoint Node or NodeList Name

  NodeList,
    SOURCE Loop Setpoint Node List,  !- Name
    SOURCE Supply Outlet Node;  !- Node 1 Name

  PlantEquipmentOperationSchemes,
    SOURCE Loop Operation,   !- Name
    PlantEquipmentOperation:HeatingLoad,  !- Control Scheme 1 Object Type
    SOURCE Purchased Only,   !- Control Scheme 1 Name
    AlwaysOnSchedule;        !- Control Scheme 1 Schedule Name

  PlantEquipmentOperation:HeatingLoad,
    SOURCE Purchased Only,   !- Name
    0,                       !- Load Range 1 Lower Limit {W}
    10000000,                !- Load Range 1 Upper Limit {W}
    SOURCE Heating Plant;    !- Range 1 Equipment List Name

  PlantEquipmentList,
    SOURCE Heating Plant,    !- Name
    DistrictHeating:Water,         !- Equipment 1 Object Type
    SOURCE Purchased Heating;!- Equipment 1 Name

  BranchList,
    SOURCE Supply Branches,  !- Name
    SOURCE Supply Inlet Branch,  !- Branch 1 Name
    SOURCE Heating Branch,   !- Branch 2 Name
    SOURCE Supply Outlet Branch;  !- Branch 3 Name

  ConnectorList,
    SOURCE Supply Connectors,!- Name
    Connector:Splitter,      !- Connector 1 Object Type
    SOURCE Supply Splitter,  !- Connector 1 Name
    Connector:Mixer,         !- Connector 2 Object Type
    SOURCE Supply Mixer;     !- Connector 2 Name

  Connector:Splitter,
    SOURCE Supply Splitter,  !- Name
    SOURCE Supply Inlet Branch,  !- Inlet Branch Name
    SOURCE Heating Branch;   !- Outlet Branch 1 Name

  Connector:Mixer,
    SOURCE Supply Mixer,     !- Name
    SOURCE Supply Outlet Branch,  !- Outlet Branch Name
    SOURCE Heating Branch;   !- Inlet Branch 1 Name

  Branch,
    SOURCE Supply Inlet Branch,  !- Name
    ,                        !- Pressure Drop Curve Name
    Pump:VariableSpeed,      !- Component 1 Object Type
    SOURCE Pump,             !- Component 1 Name
    SOURCE Supply Inlet Node,!- Component 1 Inlet Node Name
    SOURCE Supply Pump-Heating Node;  !- Component 1 Outlet Node Name

  Pump:VariableSpeed,
    SOURCE Pump,             !- Name
    SOURCE Supply Inlet Node,!- Inlet Node Name
    SOURCE Supply Pump-Heating Node,  !- Outlet Node Name
    0.005,                   !- Design Maximum Flow Rate {m3/s}
    300000,                  !- Design Pump Head {Pa}
    2250,                    !- Design Power Consumption {W}
    0.87,                    !- Motor Efficiency
    0.0,                     !- Fraction of Motor Inefficiencies to Fluid Stream
    0,                       !- Coefficient 1 of the Part Load Performance Curve
    1,                       !- Coefficient 2 of the Part Load Performance Curve
    0,                       !- Coefficient 3 of the Part Load Performance Curve
    0,                       !- Coefficient 4 of the Part Load Performance Curve
    0,                       !- Design Minimum Flow Rate {m3/s}
    INTERMITTENT;            !- Pump Control Type

  Branch,
    SOURCE Heating Branch,   !- Name
    ,                        !- Pressure Drop Curve Name
    DistrictHeating:Water,         !- Component 1 Object Type
    SOURCE Purchased Heating,!- Component 1 Name
    SOURCE Supply Heating Inlet Node,  !- Component 1 Inlet Node Name
    SOURCE Supply Heating Outlet Node;  !- Component 1 Outlet Node Name

  DistrictHeating:Water,
    SOURCE Purchased Heating,!- Name
    SOURCE Supply Heating Inlet Node,  !- Hot Water Inlet Node Name
    SOURCE Supply Heating Outlet Node,  !- Hot Water Outlet Node Name
    1000000;                 !- Nominal Capacity {W}

  Branch,
    SOURCE Supply Outlet Branch,  !- Name
    ,                        !- Pressure Drop Curve Name
    Pipe:Adiabatic,          !- Component 1 Object Type
    SOURCE Supply Outlet Pipe,  !- Component 1 Name
    SOURCE Supply Heating-Pipe Node,  !- Component 1 Inlet Node Name
    SOURCE Supply Outlet Node;  !- Component 1 Outlet Node Name

  Pipe:Adiabatic,
    SOURCE Supply Outlet Pipe,  !- Name
    SOURCE Supply Heating-Pipe Node,  !- Inlet Node Name
    SOURCE Supply Outlet Node;  !- Outlet Node Name

  BranchList,
    SOURCE Demand Branches,  !- Name
    SOURCE Demand Inlet Branch,  !- Branch 1 Name
    SOURCE Demand HX Branch, !- Branch 2 Name
    SOURCE Demand Outlet Branch;  !- Branch 3 Name

  ConnectorList,
    SOURCE Demand Connectors,!- Name
    Connector:Splitter,      !- Connector 1 Object Type
    SOURCE Demand Splitter,  !- Connector 1 Name
    Connector:Mixer,         !- Connector 2 Object Type
    SOURCE Demand Mixer;     !- Connector 2 Name

  Connector:Splitter,
    SOURCE Demand Splitter,  !- Name
    SOURCE Demand Inlet Branch,  !- Inlet Branch Name
    SOURCE Demand HX Branch; !- Outlet Branch 1 Name

  Connector:Mixer,
    SOURCE Demand Mixer,     !- Name
    SOURCE Demand Outlet Branch,  !- Outlet Branch Name
    SOURCE Demand HX Branch; !- Inlet Branch 1 Name

  Branch,
    SOURCE Demand Inlet Branch,  !- Name
    ,                        !- Pressure Drop Curve Name