!-Generator IDFEditor 1.34
!-Option OriginalOrderTop UseSpecialFormat
!-NOTE: All comments with '!-' are ignored by the IDFEditor and are generated automatically.
!-      Use '!' comments if they need to be retained when using the IDFEditor.
! Plenum.idf
! Basic file description:  This deck contains 5 zones, three main zones (zones 1, 2, and 4) and two plenum zones (zones 3 and 5).
! Run:      2 design days.
! Building:
! Internal: Typical office type loads for people, lighting, equipment.
! System:   Two terminal reheat units (single duct, constant volume) serving the two inhabitable zones.
! Plant:    ???????
!

  Version,24.1;

  Timestep,4;

  Building,
    BUILDING #1,             !- Name
    0,                       !- North Axis {deg}
    Suburbs,                 !- Terrain
    3.9999999E-02,           !- Loads Convergence Tolerance Value {W}
    0.4000000,               !- Temperature Convergence Tolerance Value {deltaC}
    MinimalShadowing,        !- Solar Distribution
    25,                      !- Maximum Number of Warmup Days
    6;                       !- Minimum Number of Warmup Days

  SurfaceConvectionAlgorithm:Inside,Simple;

  SurfaceConvectionAlgorithm:Outside,SimpleCombined;

  Output:DebuggingData,
    No,                      !- Report Debugging Data
    No;                      !- Report During Warmup

  Site:Location,
    CHICAGO_IL_USA_WMO_725300,  !- Name
    42.00,                   !- Latitude {deg}
    -87.88,                  !- Longitude {deg}
    -6.00,                   !- Time Zone {hr}
    190.00;                  !- Elevation {m}

! CHICAGO_IL_USA Annual Heating 99%, MaxDB=-17.3°C

  SizingPeriod:DesignDay,
    CHICAGO Ann Htg 99% Condns DB,  !- Name
    1,                       !- Month
    21,                      !- Day of Month
    WinterDesignDay,         !- Day Type
    -17.3,                   !- Maximum Dry-Bulb Temperature {C}
    0.0,                     !- Daily Dry-Bulb Temperature Range {deltaC}
    ,                        !- Dry-Bulb Temperature Range Modifier Type
    ,                        !- Dry-Bulb Temperature Range Modifier Day Schedule Name
    Wetbulb,                 !- Humidity Condition Type
    -17.3,                   !- Wetbulb or DewPoint at Maximum Dry-Bulb {C}
    ,                        !- Humidity Condition Day Schedule Name
    ,                        !- Humidity Ratio at Maximum Dry-Bulb {kgWater/kgDryAir}
    ,                        !- Enthalpy at Maximum Dry-Bulb {J/kg}
    ,                        !- Daily Wet-Bulb Temperature Range {deltaC}
    99063.,                  !- Barometric Pressure {Pa}
    4.9,                     !- Wind Speed {m/s}
    270,                     !- Wind Direction {deg}
    No,                      !- Rain Indicator
    No,                      !- Snow Indicator
    No,                      !- Daylight Saving Time Indicator
    ASHRAEClearSky,          !- Solar Model Indicator
    ,                        !- Beam Solar Day Schedule Name
    ,                        !- Diffuse Solar Day Schedule Name
    ,                        !- ASHRAE Clear Sky Optical Depth for Beam Irradiance (taub) {dimensionless}
    ,                        !- ASHRAE Clear Sky Optical Depth for Diffuse Irradiance (taud) {dimensionless}
    0.00;                    !- Sky Clearness

! CHICAGO_IL_USA Annual Cooling (DB=>MWB) 1%, MaxDB=31.5°C MWB=23°C

  SizingPeriod:DesignDay,
    CHICAGO Ann Clg 1% Condns DB=>MWB,  !- Name
    7,                       !- Month
    21,                      !- Day of Month
    SummerDesignDay,         !- Day Type
    31.5,                    !- Maximum Dry-Bulb Temperature {C}
    10.7,                    !- Daily Dry-Bulb Temperature Range {deltaC}
    ,                        !- Dry-Bulb Temperature Range Modifier Type
    ,                        !- Dry-Bulb Temperature Range Modifier Day Schedule Name
    Wetbulb,                 !- Humidity Condition Type
    23,                      !- Wetbulb or DewPoint at Maximum Dry-Bulb {C}
    ,                        !- Humidity Condition Day Schedule Name
    ,                        !- Humidity Ratio at Maximum Dry-Bulb {kgWater/kgDryAir}
    ,                        !- Enthalpy at Maximum Dry-Bulb {J/kg}
    ,                        !- Daily Wet-Bulb Temperature Range {deltaC}
    99063.,                  !- Barometric Pressure {Pa}
    5.3,                     !- Wind Speed {m/s}
    230,                     !- Wind Direction {deg}
    No,                      !- Rain Indicator
    No,                      !- Snow Indicator
    No,                      !- Daylight Saving Time Indicator
    ASHRAEClearSky,          !- Solar Model Indicator
    ,                        !- Beam Solar Day Schedule Name
    ,                        !- Diffuse Solar Day Schedule Name
    ,                        !- ASHRAE Clear Sky Optical Depth for Beam Irradiance (taub) {dimensionless}
    ,                        !- ASHRAE Clear Sky Optical Depth for Diffuse Irradiance (taud) {dimensionless}
    1.00;                    !- Sky Clearness

  RunPeriod,
    Run Period 1,            !- Name
    1,                       !- Begin Month
    1,                       !- Begin Day of Month
    ,                        !- Begin Year
    12,                      !- End Month
    31,                      !- End Day of Month
    ,                        !- End Year
    Tuesday,                 !- Day of Week for Start Day
    Yes,                     !- Use Weather File Holidays and Special Days
    Yes,                     !- Use Weather File Daylight Saving Period
    No,                      !- Apply Weekend Holiday Rule
    Yes,                     !- Use Weather File Rain Indicators
    Yes;                     !- Use Weather File Snow Indicators

  SimulationControl,
    NO,                      !- Do Zone Sizing Calculation
    NO,                      !- Do System Sizing Calculation
    NO,                      !- Do Plant Sizing Calculation
    YES,                     !- Run Simulation for Sizing Periods
    NO,                      !- Run Simulation for Weather File Run Periods
    No,                      !- Do HVAC Sizing Simulation for Sizing Periods
    1;                       !- Maximum Number of HVAC Sizing Simulation Passes

  Material,
    A2 - 4 IN DENSE FACE BRICK,  !- Name
    Rough,                   !- Roughness
    0.1014984,               !- Thickness {m}
    1.245296,                !- Conductivity {W/m-K}
    2082.400,                !- Density {kg/m3}
    920.4800,                !- Specific Heat {J/kg-K}
    0.9000000,               !- Thermal Absorptance
    0.9300000,               !- Solar Absorptance
    0.9300000;               !- Visible Absorptance

  Material,
    B3 - 2 IN INSULATION,    !- Name
    VeryRough,               !- Roughness
    5.0901599E-02,           !- Thickness {m}
    4.3239430E-02,           !- Conductivity {W/m-K}
    32.03693,                !- Density {kg/m3}
    836.8000,                !- Specific Heat {J/kg-K}
    0.9000000,               !- Thermal Absorptance
    0.5000000,               !- Solar Absorptance
    0.5000000;               !- Visible Absorptance

  Material,
    C2 - 4 IN LW CONCRETE BLOCK,  !- Name
    MediumRough,             !- Roughness
    0.1014984,               !- Thickness {m}
    0.3805070,               !- Conductivity {W/m-K}
    608.7016,                !- Density {kg/m3}
    836.8000,                !- Specific Heat {J/kg-K}
    0.9000000,               !- Thermal Absorptance
    0.6500000,               !- Solar Absorptance
    0.6500000;               !- Visible Absorptance

  Material,
    E1 - 3 / 4 IN PLASTER OR GYP BOARD,  !- Name
    Smooth,                  !- Roughness
    1.9050000E-02,           !- Thickness {m}
    0.7264224,               !- Conductivity {W/m-K}
    1601.846,                !- Density {kg/m3}
    836.8000,                !- Specific Heat {J/kg-K}
    0.9000000,               !- Thermal Absorptance
    0.9200000,               !- Solar Absorptance
    0.9200000;               !- Visible Absorptance

  WindowMaterial:Glazing,
    GLASS - GREY PLATE 3 / 8 IN,  !- Name
    SpectralAverage,         !- Optical Data Type
    ,                        !- Window Glass Spectral Data Set Name
    8.9999996E-03,           !- Thickness {m}
    0.2580000,               !- Solar Transmittance at Normal Incidence
    4.6999998E-02,           !- Front Side Solar Reflectance at Normal Incidence
    5.0999999E-02,           !- Back Side Solar Reflectance at Normal Incidence
    0.2760000,               !- Visible Transmittance at Normal Incidence
    5.0000001E-02,           !- Front Side Visible Reflectance at Normal Incidence
    5.5000000E-02,           !- Back Side Visible Reflectance at Normal Incidence
    0,                       !- Infrared Transmittance at Normal Incidence
    0.8400000,               !- Front Side Infrared Hemispherical Emissivity
    0.8400000,               !- Back Side Infrared Hemispherical Emissivity
    0.9000000;               !- Conductivity {W/m-K}

  WindowMaterial:Gas,
    WinAirB1 - AIRSPACE RESISTANCE,  !- Name
    AIR,                     !- Gas Type
    1.3000000E-02;           !- Thickness {m}

  WindowMaterial:Glazing,
    GLASS - CLEAR PLATE 3 / 8 IN,  !- Name
    SpectralAverage,         !- Optical Data Type
    ,                        !- Window Glass Spectral Data Set Name
    8.9999996E-03,           !- Thickness {m}
    0.7240000,               !- Solar Transmittance at Normal Incidence
    6.4999998E-02,           !- Front Side Solar Reflectance at Normal Incidence
    6.4999998E-02,           !- Back Side Solar Reflectance at Normal Incidence
    0.8580000,               !- Visible Transmittance at Normal Incidence
    7.4000001E-02,           !- Front Side Visible Reflectance at Normal Incidence
    7.4000001E-02,           !- Back Side Visible Reflectance at Normal Incidence
    0,                       !- Infrared Transmittance at Normal Incidence
    0.8400000,               !- Front Side Infrared Hemispherical Emissivity
    0.8400000,               !- Back Side Infrared Hemispherical Emissivity
    0.9000000;               !- Conductivity {W/m-K}

  Material,
    C7 - 8 IN LW CONCRETE BLOCK,  !- Name
    Rough,                   !- Roughness
    0.2033016,               !- Thickness {m}
    0.5707605,               !- Conductivity {W/m-K}
    608.7016,                !- Density {kg/m3}
    836.8000,                !- Specific Heat {J/kg-K}
    0.9000000,               !- Thermal Absorptance
    0.6500000,               !- Solar Absorptance
    0.6500000;               !- Visible Absorptance

  Material,
    CONCRETE - SAND AND GRAVEL 4 IN,  !- Name
    MediumRough,             !- Roughness
    0.1014984,               !- Thickness {m}
    1.729577,                !- Conductivity {W/m-K}
    2242.585,                !- Density {kg/m3}
    836.8000,                !- Specific Heat {J/kg-K}
    0.9000000,               !- Thermal Absorptance
    0.6000000,               !- Solar Absorptance
    0.6000000;               !- Visible Absorptance

  Material,
    E5 - ACOUSTIC TILE,      !- Name
    MediumSmooth,            !- Roughness
    1.9050000E-02,           !- Thickness {m}
    6.0535200E-02,           !- Conductivity {W/m-K}
    480.5539,                !- Density {kg/m3}
    836.8000,                !- Specific Heat {J/kg-K}
    0.9000000,               !- Thermal Absorptance
    0.3200000,               !- Solar Absorptance
    0.3200000;               !- Visible Absorptance

  Material,
    C5 - 4 IN HW CONCRETE,   !- Name
    MediumRough,             !- Roughness
    0.1014984,               !- Thickness {m}
    1.729577,                !- Conductivity {W/m-K}
    2242.585,                !- Density {kg/m3}
    836.8000,                !- Specific Heat {J/kg-K}
    0.9000000,               !- Thermal Absorptance
    0.6500000,               !- Solar Absorptance
    0.6500000;               !- Visible Absorptance

  Material:AirGap,
    E4 - CEILING AIRSPACE,   !- Name
    0.1762280;               !- Thermal Resistance {m2-K/W}

  Material,
    E2 - 1 / 2 IN SLAG OR STONE,  !- Name
    Rough,                   !- Roughness
    1.2710161E-02,           !- Thickness {m}
    1.435549,                !- Conductivity {W/m-K}
    881.0155,                !- Density {kg/m3}
    1673.600,                !- Specific Heat {J/kg-K}
    0.9000000,               !- Thermal Absorptance
    0.5500000,               !- Solar Absorptance
    0.5500000;               !- Visible Absorptance

  Material,
    E3 - 3 / 8 IN FELT AND MEMBRANE,  !- Name
    Rough,                   !- Roughness
    9.5402403E-03,           !- Thickness {m}
    0.1902535,               !- Conductivity {W/m-K}
    1121.292,                !- Density {kg/m3}
    1673.600,                !- Specific Heat {J/kg-K}
    0.9000000,               !- Thermal Absorptance
    0.7500000,               !- Solar Absorptance
    0.7500000;               !- Visible Absorptance

  Material,
    B6 - 2 IN DENSE INSULATION,  !- Name
    VeryRough,               !- Roughness
    5.0901599E-02,           !- Thickness {m}
    4.3239430E-02,           !- Conductivity {W/m-K}
    91.30524,                !- Density {kg/m3}
    836.8000,                !- Specific Heat {J/kg-K}
    0.9000000,               !- Thermal Absorptance
    0.5000000,               !- Solar Absorptance
    0.5000000;               !- Visible Absorptance

  Material,
    C12 - 2 IN HW CONCRETE,  !- Name
    MediumRough,             !- Roughness
    5.0901599E-02,           !- Thickness {m}
    1.729577,                !- Conductivity {W/m-K}
    2242.585,                !- Density {kg/m3}
    836.8000,                !- Specific Heat {J/kg-K}
    0.9000000,               !- Thermal Absorptance
    0.6500000,               !- Solar Absorptance
    0.6500000;               !- Visible Absorptance

  Construction,
    EXTERIOR,                !- Name
    A2 - 4 IN DENSE FACE BRICK,  !- Outside Layer
    B3 - 2 IN INSULATION,    !- Layer 2
    C2 - 4 IN LW CONCRETE BLOCK,  !- Layer 3
    E1 - 3 / 4 IN PLASTER OR GYP BOARD;  !- Layer 4

  Construction,
    DOUBLE PANE TINTED WINDOW,  !- Name
    GLASS - GREY PLATE 3 / 8 IN,  !- Outside Layer
    WinAirB1 - AIRSPACE RESISTANCE,  !- Layer 2
    GLASS - CLEAR PLATE 3 / 8 IN;  !- Layer 3

  Construction,
    INTERIOR,                !- Name
    C7 - 8 IN LW CONCRETE BLOCK;  !- Outside Layer

  Construction,
    SLAB FLOOR,              !- Name
    CONCRETE - SAND AND GRAVEL 4 IN;  !- Outside Layer

  Construction,
    PLENUM CEILING,          !- Name
    E5 - ACOUSTIC TILE;      !- Outside Layer

  Construction,
    PLENUM FLOOR,            !- Name
    E5 - ACOUSTIC TILE;      !- Outside Layer

  Construction,
    CEILING39,               !- Name
    C5 - 4 IN HW CONCRETE,   !- Outside Layer
    E4 - CEILING AIRSPACE,   !- Layer 2
    E5 - ACOUSTIC TILE;      !- Layer 3

  Construction,
    FLOOR39,                 !- Name
    E5 - ACOUSTIC TILE,      !- Outside Layer
    E4 - CEILING AIRSPACE,   !- Layer 2
    C5 - 4 IN HW CONCRETE;   !- Layer 3

  Construction,
    ROOF31,                  !- Name
    E2 - 1 / 2 IN SLAG OR STONE,  !- Outside Layer
    E3 - 3 / 8 IN FELT AND MEMBRANE,  !- Layer 2
    B6 - 2 IN DENSE INSULATION,  !- Layer 3
    C12 - 2 IN HW CONCRETE;  !- Layer 4

  ScheduleTypeLimits,
    Any Number;              !- Name

  ScheduleTypeLimits,
    Fraction,                !- Name
    0.0,                     !- Lower Limit Value
    1.0,                     !- Upper Limit Value
    CONTINUOUS;              !- Numeric Type

  ScheduleTypeLimits,
    Temperature,             !- Name
    -60,                     !- Lower Limit Value
    200,                     !- Upper Limit Value
    CONTINUOUS,              !- Numeric Type
    Temperature;             !- Unit Type

  ScheduleTypeLimits,
    Control Type,            !- Name
    0,                       !- Lower Limit Value
    4,                       !- Upper Limit Value
    DISCRETE;                !- Numeric Type

  ScheduleTypeLimits,
    On/Off,                  !- Name
    0,                       !- Lower Limit Value
    1,                       !- Upper Limit Value
    DISCRETE;                !- Numeric Type

  Schedule:Compact,
    BLDG Sch   1,            !- Name
    Any Number,              !- Schedule Type Limits Name
    Through: 12/31,          !- Field 1
    For: Monday Tuesday Wednesday Thursday Friday, !- Field 2
    Until: 7:00,0.00,        !- Field 3
    Until: 8:00,0.10,        !- Field 5
    Until: 9:00,0.50,        !- Field 7
    Until: 13:00,1.00,       !- Field 9
    Until: 14:00,0.50,       !- Field 11
    Until: 17:00,1.00,       !- Field 13
    Until: 18:00,0.50,       !- Field 15
    Until: 19:00,0.10,       !- Field 17
    Until: 24:00,0.00,       !- Field 19
    For: AllOtherDays,       !- Field 21
    Until: 24:00,0.0;        !- Field 22

  Schedule:Compact,
    BLDG Sch   2,            !- Name
    Any Number,              !- Schedule Type Limits Name
    Through: 12/31,          !- Field 1
    For: Monday Tuesday Wednesday Thursday Friday, !- Field 2
    Until: 7:00,0.05,        !- Field 3
    Until: 8:00,0.20,        !- Field 5
    Until: 18:00,1.00,       !- Field 7
    Until: 19:00,0.50,       !- Field 9
    Until: 24:00,0.05,       !- Field 11
    For: AllOtherDays,       !- Field 13
    Until: 24:00,0.05;       !- Field 14

  Site:GroundTemperature:BuildingSurface,20.03,20.03,20.13,20.30,20.43,20.52,20.62,20.77,20.78,20.55,20.44,20.20;

! original origin (10.7,11.3,0)

  Zone,
    ZONE 1,                  !- Name
    0,                       !- Direction of Relative North {deg}
    0,                       !- X Origin {m}
    0,                       !- Y Origin {m}
    0,                       !- Z Origin {m}
    1,                       !- Type
    1,                       !- Multiplier
    autocalculate,           !- Ceiling Height {m}
    autocalculate;           !- Volume {m3}

! original origin (30.73,11.32,0)

  Zone,
    ZONE 2,                  !- Name
    0,                       !- Direction of Relative North {deg}
    0,                       !- X Origin {m}
    0,                       !- Y Origin {m}
    0,                       !- Z Origin {m}
    1,                       !- Type
    1,                       !- Multiplier
    autocalculate,           !- Ceiling Height {m}
    autocalculate;           !- Volume {m3}

! original origin (10.73,11.32,3)

  Zone,
    ZONE 3,                  !- Name
    0,                       !- Direction of Relative North {deg}
    0,                       !- X Origin {m}
    0,                       !- Y Origin {m}
    0,                       !- Z Origin {m}
    1,                       !- Type
    1,                       !- Multiplier
    autocalculate,           !- Ceiling Height {m}
    autocalculate;           !- Volume {m3}

! original origin (10.73,11.32,3.5)

  Zone,
    ZONE 4,                  !- Name
    0,                       !- Direction of Relative North {deg}
    0,                       !- X Origin {m}
    0,                       !- Y Origin {m}
    0,                       !- Z Origin {m}
    1,                       !- Type
    1,                       !- Multiplier
    autocalculate,           !- Ceiling Height {m}
    autocalculate;           !- Volume {m3}

! original origin (10.73,11.32,6.5)

  Zone,
    ZONE 5,                  !- Name
    0,                       !- Direction of Relative North {deg}
    0,                       !- X Origin {m}
    0,                       !- Y Origin {m}
    0,                       !- Z Origin {m}
    1,                       !- Type
    1,                       !- Multiplier
    autocalculate,           !- Ceiling Height {m}
    autocalculate;           !- Volume {m3}

  People,
    ZONE 1 People 1,         !- Name
    ZONE 1,                  !- Zone or ZoneList or Space or SpaceList Name
    BLDG Sch   1,            !- Number of People Schedule Name
    people,                  !- Number of People Calculation Method
    29.00000,                !- Number of People
    ,                        !- People per Floor Area {person/m2}
    ,                        !- Floor Area per Person {m2/person}
    0.6000000,               !- Fraction Radiant
    ,                        !- Sensible Heat Fraction
    Activity Lvl   1;        !- Activity Level Schedule Name

  Lights,
    ZONE 1 Lights 1,         !- Name
    ZONE 1,                  !- Zone or ZoneList or Space or SpaceList Name
    BLDG Sch   2,            !- Schedule Name
    LightingLevel,           !- Design Level Calculation Method
    4310.000,                !- Lighting Level {W}
    ,                        !- Watts per Zone Floor Area {W/m2}
    ,                        !- Watts per Person {W/person}
    0,                       !- Return Air Fraction
    0.4000000,               !- Fraction Radiant
    0.2000000,               !- Fraction Visible
    0,                       !- Fraction Replaceable
    GeneralLights;           !- End-Use Subcategory

  ElectricEquipment,
    ZONE 1 ElecEq 1,         !- Name
    ZONE 1,                  !- Zone or ZoneList or Space or SpaceList Name
    BLDG Sch   2,            !- Schedule Name
    EquipmentLevel,          !- Design Level Calculation Method
    4310.000,                !- Design Level {W}
    ,                        !- Watts per Zone Floor Area {W/m2}
    ,                        !- Watts per Person {W/person}
    0,                       !- Fraction Latent
    0.3000000,               !- Fraction Radiant
    0;                       !- Fraction Lost

  People,
    ZONE 2 People 1,         !- Name
    ZONE 2,                  !- Zone or ZoneList or Space or SpaceList Name
    BLDG Sch   1,            !- Number of People Schedule Name
    people,                  !- Number of People Calculation Method
    29.00000,                !- Number of People
    ,                        !- People per Floor Area {person/m2}
    ,                        !- Floor Area per Person {m2/person}
    0.6000000,               !- Fraction Radiant
    ,                        !- Sensible Heat Fraction
    Activity Lvl   1;        !- Activity Level Schedule Name

  Lights,
    ZONE 2 Lights 1,         !- Name
    ZONE 2,                  !- Zone or ZoneList or Space or SpaceList Name
    BLDG Sch   2,            !- Schedule Name
    LightingLevel,           !- Design Level Calculation Method
    4310.000,                !- Lighting Level {W}
    ,                        !- Watts per Zone Floor Area {W/m2}
    ,                        !- Watts per Person {W/person}
    0,                       !- Return Air Fraction
    0.4000000,               !- Fraction Radiant
    0.2000000,               !- Fraction Visible
    0,                       !- Fraction Replaceable
    GeneralLights;           !- End-Use Subcategory

  ElectricEquipment,
    ZONE 2 ElecEq 1,         !- Name
    ZONE 2,                  !- Zone or ZoneList or Space or SpaceList Name
    BLDG Sch   2,            !- Schedule Name
    EquipmentLevel,          !- Design Level Calculation Method
    4310.000,                !- Design Level {W}
    ,                        !- Watts per Zone Floor Area {W/m2}
    ,                        !- Watts per Person {W/person}
    0,                       !- Fraction Latent
    0.3000000,               !- Fraction Radiant
    0;                       !- Fraction Lost

  People,
    ZONE 4 People 1,         !- Name
    ZONE 4,                  !- Zone or ZoneList or Space or SpaceList Name
    BLDG Sch   1,            !- Number of People Schedule Name
    people,                  !- Number of People Calculation Method
    57.00000,                !- Number of People
    ,                        !- People per Floor Area {person/m2}
    ,                        !- Floor Area per Person {m2/person}
    0.6000000,               !- Fraction Radiant
    ,                        !- Sensible Heat Fraction
    Activity Lvl   1;        !- Activity Level Schedule Name

  Lights,
    ZONE 4 Lights 1,         !- Name
    ZONE 4,                  !- Zone or ZoneList or Space or SpaceList Name
    BLDG Sch   2,            !- Schedule Name
    LightingLevel,           !- Design Level Calculation Method
    8610.000,                !- Lighting Level {W}
    ,                        !- Watts per Zone Floor Area {W/m2}
    ,                        !- Watts per Person {W/person}
    0,                       !- Return Air Fraction
    0.4000000,               !- Fraction Radiant
    0.2000000,               !- Fraction Visible
    0,                       !- Fraction Replaceable
    GeneralLights;           !- End-Use Subcategory

  ElectricEquipment,
    ZONE 4 ElecEq 1,         !- Name
    ZONE 4,                  !- Zone or ZoneList or Space or SpaceList Name
    BLDG Sch   2,            !- Schedule Name
    EquipmentLevel,          !- Design Level Calculation Method
    8610.000,                !- Design Level {W}
    ,                        !- Watts per Zone Floor Area {W/m2}
    ,                        !- Watts per Person {W/person}
    0,                       !- Fraction Latent
    0.3000000,               !- Fraction Radiant
    0;                       !- Fraction Lost

  Schedule:Compact,
    Activity Lvl   1,        !- Name
    Any Number,              !- Schedule Type Limits Name
    Through: 12/31,          !- Field 1
    For: AllDays,            !- Field 2
    Until: 24:00,140.0;      !- Field 3

  GlobalGeometryRules,
    UpperLeftCorner,         !- Starting Vertex Position
    CounterClockWise,        !- Vertex Entry Direction
    World;                   !- Coordinate System

  BuildingSurface:Detailed,
    Zn001:Wall001,           !- Name
    Wall,                    !- Surface Type
    EXTERIOR,                !- Construction Name
    ZONE 1,                  !- Zone Name
    ,                        !- Space Name
    Outdoors,                !- Outside Boundary Condition
    ,                        !- Outside Boundary Condition Object
    SunExposed,              !- Sun Exposure
    WindExposed,             !- Wind Exposure
    0.5000000,               !- View Factor to Ground
    4,                       !- Number of Vertices
    10.70000,11.30000,3.000000,  !- X,Y,Z ==> Vertex 1 {m}
    10.70000,11.30000,0,  !- X,Y,Z ==> Vertex 2 {m}
    30.70000,11.30000,0,  !- X,Y,Z ==> Vertex 3 {m}
    30.70000,11.30000,3.000000;  !- X,Y,Z ==> Vertex 4 {m}

  FenestrationSurface:Detailed,
    Zn001:Wall001:Win001,    !- Name
    Window,                  !- Surface Type
    DOUBLE PANE TINTED WINDOW,  !- Construction Name
    Zn001:Wall001,           !- Building Surface Name
    ,                        !- Outside Boundary Condition Object
    0.5000000,               !- View Factor to Ground
    ,                        !- Frame and Divider Name
    1.000000,                !- Multiplier
    4,                       !- Number of Vertices
    15.70000,11.30000,2.500000,  !- X,Y,Z ==> Vertex 1 {m}
    15.70000,11.30000,0.5000000,  !- X,Y,Z ==> Vertex 2 {m}
    25.70000,11.30000,0.5000000,  !- X,Y,Z ==> Vertex 3 {m}
    25.70000,11.30000,2.500000;  !- X,Y,Z ==> Vertex 4 {m}

  BuildingSurface:Detailed,
    Zn001:Wall002,           !- Name
    Wall,                    !- Surface Type
    EXTERIOR,                !- Construction Name
    ZONE 1,                  !- Zone Name
    ,                        !- Space Name
    Outdoors,                !- Outside Boundary Condition
    ,                        !- Outside Boundary Condition Object
    SunExposed,              !- Sun Exposure
    WindExposed,             !- Wind Exposure
    0.5000000,               !- View Factor to Ground
    4,                       !- Number of Vertices
    30.70000,31.30000,3.000000,  !- X,Y,Z ==> Vertex 1 {m}
    30.70000,31.30000,0,  !- X,Y,Z ==> Vertex 2 {m}
    10.70000,31.30000,0,  !- X,Y,Z ==> Vertex 3 {m}
    10.70000,31.30000,3.000000;  !- X,Y,Z ==> Vertex 4 {m}

  BuildingSurface:Detailed,
    Zn001:Wall003,           !- Name
    Wall,                    !- Surface Type
    EXTERIOR,                !- Construction Name
    ZONE 1,                  !- Zone Name
    ,                        !- Space Name
    Outdoors,                !- Outside Boundary Condition
    ,                        !- Outside Boundary Condition Object
    SunExposed,              !- Sun Exposure
    WindExposed,             !- Wind Exposure
    0.5000000,               !- View Factor to Ground
    4,                       !- Number of Vertices
    10.70000,31.30000,3.000000,  !- X,Y,Z ==> Vertex 1 {m}
    10.70000,31.30000,0,  !- X,Y,Z ==> Vertex 2 {m}
    10.70000,11.30000,0,  !- X,Y,Z ==> Vertex 3 {m}
    10.70000,11.30000,3.000000;  !- X,Y,Z ==> Vertex 4 {m}

  FenestrationSurface:Detailed,
    Zn001:Wall003:Win001,    !- Name
    Window,                  !- Surface Type
    DOUBLE PANE TINTED WINDOW,  !- Construction Name
    Zn001:Wall003,           !- Building Surface Name
    ,                        !- Outside Boundary Condition Object
    0.5000000,               !- View Factor to Ground
    ,                        !- Frame and Divider Name
    1.000000,                !- Multiplier
    4,                       !- Number of Vertices
    10.70000,26.30000,2.500000,  !- X,Y,Z ==> Vertex 1 {m}
    10.70000,26.30000,0.5000000,  !- X,Y,Z ==> Vertex 2 {m}
    10.70000,16.30000,0.5000000,  !- X,Y,Z ==> Vertex 3 {m}
    10.70000,16.30000,2.500000;  !- X,Y,Z ==> Vertex 4 {m}

  BuildingSurface:Detailed,
    Zn001:Wall004,           !- Name
    Wall,                    !- Surface Type
    INTERIOR,                !- Construction Name
    ZONE 1,                  !- Zone Name
    ,                        !- Space Name
    Surface,                 !- Outside Boundary Condition