!-Generator IDFEditor 1.34
!-Option OriginalOrderTop UseSpecialFormat
!-NOTE: All comments with '!-' are ignored by the IDFEditor and are generated automatically.
!-      Use '!' comments if they need to be retained when using the IDFEditor.
!1ZoneUncontrolled.idf
! Basic file description:  Basic test for EnergyPlus.  Resistive Walls.  Regular (no ground contact) floor.
!                          Regular roof.  No Windows.
!
! Highlights:              Very basic test to see that EnergyPlus "works".
!
!
! Simulation Location/Run: Denver Centennial  Golden CO USA WMO=724666, 2 design days, 1 run period,
!                          Run Control executes two design days (see RUN PERIOD object)
!
! Location:                Denver, CO
!
! Design Days:             Denver Centennial  Golden CO USA Annual Heating 99%, MaxDB=-15.5°C
!                          Denver Centennial  Golden CO USA Annual Cooling (DB=>MWB) 1%, MaxDB=32°C MWB=15.5°C
!
! Run Period (Weather File): Full Annual Simulation, DENVER_STAPLETON_CO_USA_WMO_724690
!
! Run Control:             No zone or system sizing, design day run control (no weather file simulation)
!
! Building: Fictional 1 zone building with resistive walls.
!
!           The building is oriented due north.
!
! Floor Area:        232.25 m2
! Number of Stories: 1
!
! Zone Description Details:
!
!       (0,15.24,0)                 (15.24,15.24,0)
!              _____________________________
!             |                             |
!             |                             |
!             |                             |
!             |                             |
!             |                             |
!             |                             |
!             |                             |
!             |                             |
!             |                             |
!             |                             |
!             |                             |
!             |                             |
!             |                             |
!             |                             |
!             |                             |
!             |_____________________________|
!
!          (0,0,0)                      (15.24,0,0)
!
! Internal gains description:     NA
!
! Interzone Surfaces:             None
! Internal Mass:                  None
! People:                         None
! Lights:                         None
! Equipment:                      None
! Windows:                        0
! Detached Shading:               None
! Daylight:                       None
! Natural Ventilation:            None
! Compact Schedules:              NA (Example of non-Compact Schedules)
! Solar Distribution:             MinimalShadowing
!
! HVAC:                           NA
!
! Zonal Equipment:                NA
! Central Air Handling Equipment: No
! System Equipment Autosize:      No
! Purchased Cooling:              No
! Purchased Heating:              No
! Purchased Chilled Water:        No
! Purchased Hot Water:            No
! Coils:                          None
! Pumps:                          None
! Boilers:                        None
! Chillers:                       None
! Towers:                         None
!
! Results:
! Standard Reports:               Variable Dictionary, Surfaces (dxf-wireframe), Meter File
! Timestep or Hourly Variables:   Hourly and Daily
! Time bins Report:               None
! HTML Report:                    None
! Environmental Emissions:        None
! Utility Tariffs:                None

  Version,24.1;

  Timestep,60;

  Building,
    Simple One Zone (Wireframe DXF),  !- Name
    0,                       !- North Axis {deg}
    Suburbs,                 !- Terrain
    0.04,                    !- Loads Convergence Tolerance Value {W}
    0.004,                   !- Temperature Convergence Tolerance Value {deltaC}
    MinimalShadowing,        !- Solar Distribution
    30,                      !- Maximum Number of Warmup Days
    6;                       !- Minimum Number of Warmup Days

  HeatBalanceAlgorithm,ConductionFiniteDifference;

  SurfaceConvectionAlgorithm:Inside,TARP;

  SurfaceConvectionAlgorithm:Outside,DOE-2;

  SimulationControl,
    No,                      !- Do Zone Sizing Calculation
    No,                      !- Do System Sizing Calculation
    No,                      !- Do Plant Sizing Calculation
    Yes,                     !- Run Simulation for Sizing Periods
    Yes,                     !- Run Simulation for Weather File Run Periods
    No,                      !- Do HVAC Sizing Simulation for Sizing Periods
    1;                       !- Maximum Number of HVAC Sizing Simulation Passes

  RunPeriod,
    Run Period 1,            !- Name
    1,                       !- Begin Month
    1,                       !- Begin Day of Month
    ,                        !- Begin Year
    1,                       !- End Month
    31,                      !- End Day of Month
    ,                        !- End Year
    Tuesday,                 !- Day of Week for Start Day
    Yes,                     !- Use Weather File Holidays and Special Days
    Yes,                     !- Use Weather File Daylight Saving Period
    No,                      !- Apply Weekend Holiday Rule
    Yes,                     !- Use Weather File Rain Indicators
    Yes;                     !- Use Weather File Snow Indicators

  Site:Location,
    Denver Centennial  Golden   N_CO_USA Design_Conditions,  !- Name
    39.74,                   !- Latitude {deg}
    -105.18,                 !- Longitude {deg}
    -7.00,                   !- Time Zone {hr}
    1829.00;                 !- Elevation {m}

 !  WMO=724666 Time Zone=NAM: (GMT-07:00) Mountain Time (US & Canada)
 !  Data Source=ASHRAE 2009 Annual Design Conditions
 ! Denver Centennial  Golden   N_CO_USA Annual Heating Design Conditions Wind Speed=3m/s Wind Dir=340
 ! Coldest Month=DEC
 ! Denver Centennial  Golden   N_CO_USA Annual Heating 99%, MaxDB=-15.5°C

  SizingPeriod:DesignDay,
    Denver Centennial  Golden   N Ann Htg 99% Condns DB,  !- Name
    12,                      !- Month
    21,                      !- Day of Month
    WinterDesignDay,         !- Day Type
    -15.5,                   !- Maximum Dry-Bulb Temperature {C}
    0.0,                     !- Daily Dry-Bulb Temperature Range {deltaC}
    ,                        !- Dry-Bulb Temperature Range Modifier Type
    ,                        !- Dry-Bulb Temperature Range Modifier Day Schedule Name
    Wetbulb,                 !- Humidity Condition Type
    -15.5,                   !- Wetbulb or DewPoint at Maximum Dry-Bulb {C}
    ,                        !- Humidity Condition Day Schedule Name
    ,                        !- Humidity Ratio at Maximum Dry-Bulb {kgWater/kgDryAir}
    ,                        !- Enthalpy at Maximum Dry-Bulb {J/kg}
    ,                        !- Daily Wet-Bulb Temperature Range {deltaC}
    81198.,                  !- Barometric Pressure {Pa}
    3,                       !- Wind Speed {m/s}
    340,                     !- Wind Direction {deg}
    No,                      !- Rain Indicator
    No,                      !- Snow Indicator
    No,                      !- Daylight Saving Time Indicator
    ASHRAEClearSky,          !- Solar Model Indicator
    ,                        !- Beam Solar Day Schedule Name
    ,                        !- Diffuse Solar Day Schedule Name
    ,                        !- ASHRAE Clear Sky Optical Depth for Beam Irradiance (taub) {dimensionless}
    ,                        !- ASHRAE Clear Sky Optical Depth for Diffuse Irradiance (taud) {dimensionless}
    0.00;                    !- Sky Clearness

 ! Denver Centennial  Golden   N Annual Cooling Design Conditions Wind Speed=4.9m/s Wind Dir=0
 ! Hottest Month=JUL
 ! Denver Centennial  Golden   N_CO_USA Annual Cooling (DB=>MWB) 1%, MaxDB=32°C MWB=15.5°C

  SizingPeriod:DesignDay,
    Denver Centennial  Golden   N Ann Clg 1% Condns DB=>MWB,  !- Name
    7,                       !- Month
    21,                      !- Day of Month
    SummerDesignDay,         !- Day Type
    32,                      !- Maximum Dry-Bulb Temperature {C}
    15.2,                    !- Daily Dry-Bulb Temperature Range {deltaC}
    ,                        !- Dry-Bulb Temperature Range Modifier Type
    ,                        !- Dry-Bulb Temperature Range Modifier Day Schedule Name
    Wetbulb,                 !- Humidity Condition Type
    15.5,                    !- Wetbulb or DewPoint at Maximum Dry-Bulb {C}
    ,                        !- Humidity Condition Day Schedule Name
    ,                        !- Humidity Ratio at Maximum Dry-Bulb {kgWater/kgDryAir}
    ,                        !- Enthalpy at Maximum Dry-Bulb {J/kg}
    ,                        !- Daily Wet-Bulb Temperature Range {deltaC}
    81198.,                  !- Barometric Pressure {Pa}
    4.9,                     !- Wind Speed {m/s}
    0,                       !- Wind Direction {deg}
    No,                      !- Rain Indicator
    No,                      !- Snow Indicator
    No,                      !- Daylight Saving Time Indicator
    ASHRAEClearSky,          !- Solar Model Indicator
    ,                        !- Beam Solar Day Schedule Name
    ,                        !- Diffuse Solar Day Schedule Name
    ,                        !- ASHRAE Clear Sky Optical Depth for Beam Irradiance (taub) {dimensionless}
    ,                        !- ASHRAE Clear Sky Optical Depth for Diffuse Irradiance (taud) {dimensionless}
    1.00;                    !- Sky Clearness

  Material:NoMass,
    R31LAYER,                !- Name
    Rough,                   !- Roughness
    5.456,                   !- Thermal Resistance {m2-K/W}
    0.9000000,               !- Thermal Absorptance
    0.7500000,               !- Solar Absorptance
    0.7500000;               !- Visible Absorptance

  Material,
    C5 - 4 IN HW CONCRETE,   !- Name
    MediumRough,             !- Roughness
    0.1014984,               !- Thickness {m}
    1.729577,                !- Conductivity {W/m-K}
    2242.585,                !- Density {kg/m3}
    836.8000,                !- Specific Heat {J/kg-K}
    0.9000000,               !- Thermal Absorptance
    0.6500000,               !- Solar Absorptance
    0.6500000;               !- Visible Absorptance

  Material,
    Vinyl&#44 Light,         !- Name
    Rough,                   !- Roughness
    0.009525,                !- Thickness {m}
    0.089435,                !- Conductivity {W/m-K}
    177.822,                 !- Density {kg/m3}
    1046.75,                 !- Specific Heat {J/kg-K}
    0.9,                     !- Thermal Absorptance
    0.3,                     !- Solar Absorptance
    0.3;                     !- Visible Absorptance

  Material,
    WallSheathing,           !- Name
    Rough,                   !- Roughness
    0.0127,                  !- Thickness {m}
    0.1154577,               !- Conductivity {W/m-K}
    512.64,                  !- Density {kg/m3}
    1214.23,                 !- Specific Heat {J/kg-K}
    0.9,                     !- Thermal Absorptance
    0.7,                     !- Solar Absorptance
    0.7;                     !- Visible Absorptance

  Material,
    WallStudAndCavityk1,     !- Name
    Rough,                   !- Roughness
    0.0889,                  !- Thickness {m}
    2.4,                     !- Conductivity {W/m-K}
    162.40275,               !- Density {kg/m3}
    1178.91670776819,        !- Specific Heat {J/kg-K}
    0.9,                     !- Thermal Absorptance
    0.7,                     !- Solar Absorptance
    0.7;                     !- Visible Absorptance

  Material,
    Drywall 0.5 in.,         !- Name
    Rough,                   !- Roughness
    0.0127,                  !- Thickness {m}
    0.1602906,               !- Conductivity {W/m-K}
    801,                     !- Density {kg/m3}
    837.4,                   !- Specific Heat {J/kg-K}
    0.9,                     !- Thermal Absorptance
    0.5,                     !- Solar Absorptance
    0.1;                     !- Visible Absorptance

  Material,
    Drywall 0.25 in. lay-1,  !- Name
    Rough,                   !- Roughness
    0.00635,                 !- Thickness {m}
    0.1602906,               !- Conductivity {W/m-K}
    801,                     !- Density {kg/m3}
    837.4,                   !- Specific Heat {J/kg-K}
    0.9,                     !- Thermal Absorptance
    0.5,                     !- Solar Absorptance
    0.1;                     !- Visible Absorptance

  Material,
    Drywall 0.25 in. lay-2,  !- Name
    Rough,                   !- Roughness
    0.00635,                 !- Thickness {m}
    0.1602906,               !- Conductivity {W/m-K}
    801,                     !- Density {kg/m3}
    837.4,                   !- Specific Heat {J/kg-K}
    0.9,                     !- Thermal Absorptance
    0.5,                     !- Solar Absorptance
    0.1;                     !- Visible Absorptance

  Construction,
    WallExtInsFin1,          !- Name
    Vinyl&#44 Light,         !- Outside Layer
    WallSheathing,           !- Layer 2
    WallStudAndCavityk1,     !- Layer 3
    Drywall 0.5 in.;         !- Layer 4

  Construction,
    WallExtInsFin2,          !- Name
    Vinyl&#44 Light,         !- Outside Layer
    WallSheathing,           !- Layer 2
    WallStudAndCavityk1,     !- Layer 3
    Drywall 0.25 in. lay-1,  !- Layer 4
    Drywall 0.25 in. lay-2;  !- Layer 5

  Construction,
    FLOOR,                   !- Name
    C5 - 4 IN HW CONCRETE;   !- Outside Layer

  Construction,
    ROOF31,                  !- Name
    R31LAYER;                !- Outside Layer

  Zone,
    ZONE ONE,                !- Name
    0,                       !- Direction of Relative North {deg}
    0,                       !- X Origin {m}
    0,                       !- Y Origin {m}
    0,                       !- Z Origin {m}
    1,                       !- Type
    1,                       !- Multiplier
    autocalculate,           !- Ceiling Height {m}
    autocalculate;           !- Volume {m3}

  ScheduleTypeLimits,
    Fraction,                !- Name
    0.0,                     !- Lower Limit Value
    1.0,                     !- Upper Limit Value
    CONTINUOUS;              !- Numeric Type

  GlobalGeometryRules,
    UpperLeftCorner,         !- Starting Vertex Position
    CounterClockWise,        !- Vertex Entry Direction
    World;                   !- Coordinate System

  BuildingSurface:Detailed,
    Zn001:Wall001,           !- Name
    Wall,                    !- Surface Type
    WallExtInsFin1,          !- Construction Name
    ZONE ONE,                !- Zone Name
    ,                        !- Space Name
    Outdoors,                !- Outside Boundary Condition
    ,                        !- Outside Boundary Condition Object
    SunExposed,              !- Sun Exposure
    WindExposed,             !- Wind Exposure
    0.5000000,               !- View Factor to Ground
    4,                       !- Number of Vertices
    0,0,4.572000,  !- X,Y,Z ==> Vertex 1 {m}
    0,0,0,  !- X,Y,Z ==> Vertex 2 {m}
    15.24000,0,0,  !- X,Y,Z ==> Vertex 3 {m}
    15.24000,0,4.572000;  !- X,Y,Z ==> Vertex 4 {m}

  BuildingSurface:Detailed,
    Zn001:Wall002,           !- Name
    Wall,                    !- Surface Type
    WallExtInsFin1,          !- Construction Name
    ZONE ONE,                !- Zone Name
    ,                        !- Space Name
    Outdoors,                !- Outside Boundary Condition
    ,                        !- Outside Boundary Condition Object
    SunExposed,              !- Sun Exposure
    WindExposed,             !- Wind Exposure
    0.5000000,               !- View Factor to Ground
    4,                       !- Number of Vertices
    15.24000,0,4.572000,  !- X,Y,Z ==> Vertex 1 {m}
    15.24000,0,0,  !- X,Y,Z ==> Vertex 2 {m}
    15.24000,15.24000,0,  !- X,Y,Z ==> Vertex 3 {m}
    15.24000,15.24000,4.572000;  !- X,Y,Z ==> Vertex 4 {m}

  BuildingSurface:Detailed,
    Zn001:Wall003,           !- Name
    Wall,                    !- Surface Type
    WallExtInsFin1,          !- Construction Name
    ZONE ONE,                !- Zone Name
    ,                        !- Space Name
    Outdoors,                !- Outside Boundary Condition
    ,                        !- Outside Boundary Condition Object
    SunExposed,              !- Sun Exposure
    WindExposed,             !- Wind Exposure
    0.5000000,               !- View Factor to Ground
    4,                       !- Number of Vertices
    15.24000,15.24000,4.572000,  !- X,Y,Z ==> Vertex 1 {m}
    15.24000,15.24000,0,  !- X,Y,Z ==> Vertex 2 {m}
    0,15.24000,0,  !- X,Y,Z ==> Vertex 3 {m}
    0,15.24000,4.572000;  !- X,Y,Z ==> Vertex 4 {m}

  BuildingSurface:Detailed,
    Zn001:Wall004,           !- Name
    Wall,                    !- Surface Type
    WallExtInsFin2,          !- Construction Name
    ZONE ONE,                !- Zone Name
    ,                        !- Space Name
    Outdoors,                !- Outside Boundary Condition
    ,                        !- Outside Boundary Condition Object
    SunExposed,              !- Sun Exposure
    WindExposed,             !- Wind Exposure
    0.5000000,               !- View Factor to Ground
    4,                       !- Number of Vertices
    0,15.24000,4.572000,  !- X,Y,Z ==> Vertex 1 {m}
    0,15.24000,0,  !- X,Y,Z ==> Vertex 2 {m}
    0,0,0,  !- X,Y,Z ==> Vertex 3 {m}
    0,0,4.572000;  !- X,Y,Z ==> Vertex 4 {m}

  BuildingSurface:Detailed,
    Zn001:Flr001,            !- Name
    Floor,                   !- Surface Type
    FLOOR,                   !- Construction Name
    ZONE ONE,                !- Zone Name
    ,                        !- Space Name
    Adiabatic,               !- Outside Boundary Condition
    ,                        !- Outside Boundary Condition Object
    NoSun,                   !- Sun Exposure
    NoWind,                  !- Wind Exposure
    1.000000,                !- View Factor to Ground
    4,                       !- Number of Vertices
    15.24000,0.000000,0.0,  !- X,Y,Z ==> Vertex 1 {m}
    0.000000,0.000000,0.0,  !- X,Y,Z ==> Vertex 2 {m}
    0.000000,15.24000,0.0,  !- X,Y,Z ==> Vertex 3 {m}
    15.24000,15.24000,0.0;  !- X,Y,Z ==> Vertex 4 {m}

  BuildingSurface:Detailed,
    Zn001:Roof001,           !- Name
    Roof,                    !- Surface Type
    ROOF31,                  !- Construction Name
    ZONE ONE,                !- Zone Name
    ,                        !- Space Name
    Outdoors,                !- Outside Boundary Condition
    ,                        !- Outside Boundary Condition Object
    SunExposed,              !- Sun Exposure
    WindExposed,             !- Wind Exposure
    0,                       !- View Factor to Ground
    4,                       !- Number of Vertices
    0.000000,15.24000,4.572,  !- X,Y,Z ==> Vertex 1 {m}
    0.000000,0.000000,4.572,  !- X,Y,Z ==> Vertex 2 {m}
    15.24000,0.000000,4.572,  !- X,Y,Z ==> Vertex 3 {m}
    15.24000,15.24000,4.572;  !- X,Y,Z ==> Vertex 4 {m}

  Output:Variable,*,Site Outdoor Air Drybulb Temperature,hourly;

  Output:Variable,*,Site Daylight Saving Time Status,hourly;

  Output:Variable,*,Site Day Type Index,hourly;

  Output:Variable,*,Zone Mean Air Temperature,hourly;

  Output:Variable,*,Zone Total Internal Latent Gain Energy,hourly;

  Output:Variable,*,Zone Mean Radiant Temperature,hourly;

  Output:Variable,*,Zone Air Heat Balance Surface Convection Rate,hourly;

  Output:Variable,*,Zone Air Heat Balance Air Energy Storage Rate,hourly;

  Output:Variable,*,Surface Inside Face Temperature,hourly;

  Output:Variable,*,Surface Outside Face Temperature,hourly;

  Output:Variable,*,Surface Inside Face Convection Heat Transfer Coefficient,hourly;

  Output:Variable,*,Surface Outside Face Convection Heat Transfer Coefficient,hourly;

  Output:VariableDictionary,IDF;

  Output:Surfaces:Drawing,dxf:wireframe;

  Output:Constructions,Constructions;

  OutputControl:Table:Style,
    ALL;                     !- Column Separator

  Output:Table:SummaryReports,
    AllSummary;              !- Report 1 Name

  Exterior:Lights,
    ExtLights,               !- Name
    AlwaysOn,                !- Schedule Name
    5250,                    !- Design Level {W}
    AstronomicalClock,       !- Control Option
    Grounds Lights;          !- End-Use Subcategory

  ScheduleTypeLimits,
    On/Off,                  !- Name
    0,                       !- Lower Limit Value
    1,                       !- Upper Limit Value
    DISCRETE;                !- Numeric Type

  OtherEquipment,
    Test 352a,               !- Name
    None,                    !- Fuel Type
    ZONE ONE,                !- Zone or ZoneList or Space or SpaceList Name
    AlwaysOn,                !- Schedule Name
    EquipmentLevel,          !- Design Level Calculation Method
    352,                     !- Design Level {W}
    ,                        !- Power per Zone Floor Area {W/m2}
    ,                        !- Power per Person {W/person}
    0,                       !- Fraction Latent
    0,                       !- Fraction Radiant
    0;                       !- Fraction Lost

  OtherEquipment,
    Test 352 minus,          !- Name
    None,                    !- Fuel Type
    ZONE ONE,                !- Zone or ZoneList or Space or SpaceList Name
    AlwaysOn,                !- Schedule Name
    EquipmentLevel,          !- Design Level Calculation Method
    -352,                    !- Design Level {W}
    ,                        !- Power per Zone Floor Area {W/m2}
    ,                        !- Power per Person {W/person}
    0,                       !- Fraction Latent
    0,                       !- Fraction Radiant
    0;                       !- Fraction Lost

  Schedule:Constant,AlwaysOn,On/Off,1.0;

  PythonPlugin:Instance,
    CondFD Controller,       !- Name
    Yes,                     !- Run During Warmup Days
    PythonPlugin1ZoneUncontrolledCondFD,  !- Python Module Name
    CondFDSurfaceManager;    !- Plugin Class Name

  Output:EnergyManagementSystem,
    Verbose,                 !- Actuator Availability Dictionary Reporting
    Verbose,                 !- Internal Variable Availability Dictionary Reporting
    Verbose;                 !- EMS Runtime Language Debug Output Level

  Output:Variable,*,CondFD Phase Change Node Temperature 1,hourly;

  Output:Variable,*,CondFD Phase Change Node Temperature 2,hourly;

  Output:Variable,*,CondFD Phase Change Node Temperature 3,hourly;

  Output:Variable,*,CondFD Phase Change Node Temperature 4,hourly;

  Output:Variable,*,CondFD Phase Change Node Temperature 5,hourly;

  Output:Variable,*,CondFD Phase Change Node Temperature 6,hourly;

  Output:Variable,*,CondFD Phase Change Node Conductivity 1,hourly;

  Output:Variable,*,CondFD Phase Change Node Conductivity 2,hourly;

  Output:Variable,*,CondFD Phase Change Node Conductivity 3,hourly;

  Output:Variable,*,CondFD Phase Change Node Conductivity 4,hourly;

  Output:Variable,*,CondFD Phase Change Node Conductivity 5,hourly;

  Output:Variable,*,CondFD Phase Change Node Specific Heat 1,hourly;

  Output:Variable,*,CondFD Phase Change Node Specific Heat 2,hourly;

  Output:Variable,*,CondFD Phase Change Node Specific Heat 3,hourly;

  Output:Variable,*,CondFD Phase Change Node Specific Heat 4,hourly;

  Output:Variable,*,CondFD Phase Change Node Specific Heat 5,hourly;

  Output:Variable,*,CondFD EMS Heat Source Power After Layer 4,hourly;

  Output:Variable,*,CondFD EMS Heat Source Energy After Layer 4,hourly;

