! PythonPluginPlantLoopOverrideControl.idf
! Basic file description: 10 zone, 2 story building
!
! Highlights:              This file demonstrates using Python Plugin System to override
!                          plant loop controls.  this file was derived from EcoroofOrlando.idf
!
! Simulation Location/Run: ORLANDO FL USA TMY--12841, 2 design days, 1 run periods,
!                          Run Control executes one run period (see RUN PERIOD object)
!
! Location:                Orlando, FL
!
! Design Days:             Orlando_FL_USA Annual Heating 99.6%, MaxDB=4°C
!                          Orlando_FL_USA Annual Cooling (WB=>MDB) .4%, MDB=30.7°C WB=26.8°C
!
! Run Period (Weather File): First part of february ORLANDO FL USA TMY
!
! Run Control:             Zone and System sizing with weather file run control (no design days run)
!
! Building: <more details about building.  metric units, if also english enclose in []{} or ()>
! Floor Area:
! Number of Stories:
!
! Zone Description Details:
! Internal gains description: <lighting level, equipment, number of occupants, infiltration, daylighting, etc>
! Interzone Surfaces:
! Internal Mass:
! People:
! Lights:
! Windows:
! Detached Shading:
! Daylight:
! Natural Ventilation          :
! Compact Schedules (preferred):
! Solar Distribution:
!
! HVAC: <HVAC description and plant supply, as appropriate>
! Purchased Air:
! Zonal Equipment:
! Central Air Handling Equipment:
! System Equipment Autosize:
! Purchased Cooling:
! Purchased Heating:
! Coils:
! Pumps:
! Boilers:
! Chillers:
! Towers:
!
! Results: <how are results reported>
! Standard Reports:
! Timestep or Hourly Variables:
! Time bins Report:
! HTML Report:
! Environmental Emissions:
! Utility Tariffs:

  Version,24.1;

  Building,
    AutoBuilt Model,         !- Name
    0.00,                    !- North Axis {deg}
    City,                    !- Terrain
    0.040,                   !- Loads Convergence Tolerance Value {W}
    0.200,                   !- Temperature Convergence Tolerance Value {deltaC}
    FullInteriorAndExterior, !- Solar Distribution
    25,                      !- Maximum Number of Warmup Days
    6;                       !- Minimum Number of Warmup Days

  Timestep,6;

  ConvergenceLimits,
    5,                       !- Minimum System Timestep {minutes}
    5;                       !- Maximum HVAC Iterations

  SurfaceConvectionAlgorithm:Inside,TARP;

  SurfaceConvectionAlgorithm:Outside,DOE-2;

  HeatBalanceAlgorithm,ConductionTransferFunction;

  ZoneAirHeatBalanceAlgorithm,
    AnalyticalSolution;      !- Algorithm

  ShadowCalculation,
    PolygonClipping,         !- Shading Calculation Method
    Periodic,                !- Shading Calculation Update Frequency Method
    30;                      !- Shading Calculation Update Frequency

  SimulationControl,
    Yes,                     !- Do Zone Sizing Calculation
    Yes,                     !- Do System Sizing Calculation
    No,                      !- Do Plant Sizing Calculation
    No,                      !- Run Simulation for Sizing Periods
    Yes,                     !- Run Simulation for Weather File Run Periods
    No,                      !- Do HVAC Sizing Simulation for Sizing Periods
    1;                       !- Maximum Number of HVAC Sizing Simulation Passes

  RunPeriod,
    first part of Feb,       !- Name
    2,                       !- Begin Month
    3,                       !- Begin Day of Month
    ,                        !- Begin Year
    2,                       !- End Month
    17,                      !- End Day of Month
    ,                        !- End Year
    Sunday,                  !- Day of Week for Start Day
    No,                      !- Use Weather File Holidays and Special Days
    No,                      !- Use Weather File Daylight Saving Period
    No,                      !- Apply Weekend Holiday Rule
    Yes,                     !- Use Weather File Rain Indicators
    Yes;                     !- Use Weather File Snow Indicators

! US National Holidays

  RunPeriodControl:SpecialDays,
    New Years Day,           !- Name
    January 1,               !- Start Date
    1,                       !- Duration {days}
    Holiday;                 !- Special Day Type

  RunPeriodControl:SpecialDays,
    Veterans Day,            !- Name
    November 11,             !- Start Date
    1,                       !- Duration {days}
    Holiday;                 !- Special Day Type

  RunPeriodControl:SpecialDays,
    Christmas,               !- Name
    December 25,             !- Start Date
    1,                       !- Duration {days}
    Holiday;                 !- Special Day Type

  RunPeriodControl:SpecialDays,
    Independence Day,        !- Name
    July 4,                  !- Start Date
    1,                       !- Duration {days}
    Holiday;                 !- Special Day Type

  RunPeriodControl:SpecialDays,
    MLK Day,                 !- Name
    3rd Monday in January,   !- Start Date
    1,                       !- Duration {days}
    Holiday;                 !- Special Day Type

  RunPeriodControl:SpecialDays,
    Presidents Day,          !- Name
    3rd Monday in February,  !- Start Date
    1,                       !- Duration {days}
    Holiday;                 !- Special Day Type

  RunPeriodControl:SpecialDays,
    Memorial Day,            !- Name
    Last Monday in May,      !- Start Date
    1,                       !- Duration {days}
    Holiday;                 !- Special Day Type

  RunPeriodControl:SpecialDays,
    Labor Day,               !- Name
    1st Monday in September, !- Start Date
    1,                       !- Duration {days}
    Holiday;                 !- Special Day Type

  RunPeriodControl:SpecialDays,
    Columbus Day,            !- Name
    2nd Monday in October,   !- Start Date
    1,                       !- Duration {days}
    Holiday;                 !- Special Day Type

  RunPeriodControl:SpecialDays,
    Thanksgiving,            !- Name
    4th Thursday in November,!- Start Date
    1,                       !- Duration {days}
    Holiday;                 !- Special Day Type

! Daylight Saving Period in US

  RunPeriodControl:DaylightSavingTime,
    2nd Sunday in March,     !- Start Date
    1st Sunday in November;  !- End Date

  Site:Location,
    Orlando_FL_USA Design_Conditions,  !- Name
    28.55,                   !- Latitude {deg}
    -81.33,                  !- Longitude {deg}
    -5.00,                   !- Time Zone {hr}
    32.00;                   !- Elevation {m}

! Using Design Conditions from "Climate Design Data 2005 ASHRAE Handbook"
! Orlando_FL_USA Extreme Annual Wind Speeds, 1%=8.5m/s, 2.5%=7.8m/s, 5%=7m/s
! Orlando_FL_USA Extreme Annual Temperatures, Max Drybulb=35.9°C Min Drybulb=0.1°C
! Orlando_FL_USA Annual Heating Design Conditions Wind Speed=3.7m/s Wind Dir=330
! Coldest Month=JAN
! Orlando_FL_USA Annual Heating 99.6%, MaxDB=4°C

  SizingPeriod:DesignDay,
    Orlando Ann Htg 99.6% Condns DB,  !- Name
    1,                       !- Month
    21,                      !- Day of Month
    WinterDesignDay,         !- Day Type
    4,                       !- Maximum Dry-Bulb Temperature {C}
    0.0,                     !- Daily Dry-Bulb Temperature Range {deltaC}
    ,                        !- Dry-Bulb Temperature Range Modifier Type
    ,                        !- Dry-Bulb Temperature Range Modifier Day Schedule Name
    Wetbulb,                 !- Humidity Condition Type
    4,                       !- Wetbulb or DewPoint at Maximum Dry-Bulb {C}
    ,                        !- Humidity Condition Day Schedule Name
    ,                        !- Humidity Ratio at Maximum Dry-Bulb {kgWater/kgDryAir}
    ,                        !- Enthalpy at Maximum Dry-Bulb {J/kg}
    ,                        !- Daily Wet-Bulb Temperature Range {deltaC}
    100941.,                 !- Barometric Pressure {Pa}
    3.7,                     !- Wind Speed {m/s}
    330,                     !- Wind Direction {deg}
    No,                      !- Rain Indicator
    No,                      !- Snow Indicator
    No,                      !- Daylight Saving Time Indicator
    ASHRAEClearSky,          !- Solar Model Indicator
    ,                        !- Beam Solar Day Schedule Name
    ,                        !- Diffuse Solar Day Schedule Name
    ,                        !- ASHRAE Clear Sky Optical Depth for Beam Irradiance (taub) {dimensionless}
    ,                        !- ASHRAE Clear Sky Optical Depth for Diffuse Irradiance (taud) {dimensionless}
    0.00;                    !- Sky Clearness

! Orlando_FL_USA Annual Cooling (WB=>MDB) .4%, MDB=30.7°C WB=26.8°C

  SizingPeriod:DesignDay,
    Orlando Ann Clg .4% Condns WB=>MDB,  !- Name
    7,                       !- Month
    21,                      !- Day of Month
    SummerDesignDay,         !- Day Type
    30.7,                    !- Maximum Dry-Bulb Temperature {C}
    9,                       !- Daily Dry-Bulb Temperature Range {deltaC}
    ,                        !- Dry-Bulb Temperature Range Modifier Type
    ,                        !- Dry-Bulb Temperature Range Modifier Day Schedule Name
    Wetbulb,                 !- Humidity Condition Type
    26.8,                    !- Wetbulb or DewPoint at Maximum Dry-Bulb {C}
    ,                        !- Humidity Condition Day Schedule Name
    ,                        !- Humidity Ratio at Maximum Dry-Bulb {kgWater/kgDryAir}
    ,                        !- Enthalpy at Maximum Dry-Bulb {J/kg}
    ,                        !- Daily Wet-Bulb Temperature Range {deltaC}
    100941.,                 !- Barometric Pressure {Pa}
    3.9,                     !- Wind Speed {m/s}
    270,                     !- Wind Direction {deg}
    No,                      !- Rain Indicator
    No,                      !- Snow Indicator
    No,                      !- Daylight Saving Time Indicator
    ASHRAEClearSky,          !- Solar Model Indicator
    ,                        !- Beam Solar Day Schedule Name
    ,                        !- Diffuse Solar Day Schedule Name
    ,                        !- ASHRAE Clear Sky Optical Depth for Beam Irradiance (taub) {dimensionless}
    ,                        !- ASHRAE Clear Sky Optical Depth for Diffuse Irradiance (taud) {dimensionless}
    1.00;                    !- Sky Clearness

! 1000m2-Setpoints.idf

  Site:GroundTemperature:BuildingSurface,19.00,20.01,20.07,20.12,20.17,20.23,20.28,20.31,20.30,20.30,20.29,20.27;

  Site:Precipitation,
    ScheduleAndDesignLevel,  !- Precipitation Model Type
    1,                       !- Design Level for Total Annual Precipitation {m/yr}
    precipitationMiami,      !- Precipitation Rates Schedule Name
    1;                       !- Average Total Annual Precipitation {m/yr}

  RoofIrrigation,
    SmartSchedule,           !- Irrigation Model Type
    IRRIGATIONSCHD;          !- Irrigation Rate Schedule Name

  Material,
    Wood 6inch,              !- Name
    MediumSmooth,            !- Roughness
    0.15,                    !- Thickness {m}
    0.12,                    !- Conductivity {W/m-K}
    540.0000,                !- Density {kg/m3}
    1210,                    !- Specific Heat {J/kg-K}
    0.9000000,               !- Thermal Absorptance
    0.7000000,               !- Solar Absorptance
    0.7000000;               !- Visible Absorptance

  Material,
    1.5  MW CONCRETE,        !- Name
    Rough,                   !- Roughness
    0.038,                   !- Thickness {m}
    0.858,                   !- Conductivity {W/m-K}
    1968,                    !- Density {kg/m3}
    836.8,                   !- Specific Heat {J/kg-K}
    0.9,                     !- Thermal Absorptance
    0.7,                     !- Solar Absorptance
    0.7;                     !- Visible Absorptance

  Material,
    AC02,                    !- Name
    MediumSmooth,            !- Roughness
    1.2700000E-02,           !- Thickness {m}
    5.7000000E-02,           !- Conductivity {W/m-K}
    288.0000,                !- Density {kg/m3}
    1339.000,                !- Specific Heat {J/kg-K}
    0.9000000,               !- Thermal Absorptance
    0.7000000,               !- Solar Absorptance
    0.2000000;               !- Visible Absorptance

  Material,
    MAT-CC05 4  MW CONCRETE, !- Name
    Rough,                   !- Roughness
    0.1000,                  !- Thickness {m}
    0.858,                   !- Conductivity {W/m-K}
    1968,                    !- Density {kg/m3}
    836.8,                   !- Specific Heat {J/kg-K}
    0.9,                     !- Thermal Absorptance
    0.7,                     !- Solar Absorptance
    0.2;                     !- Visible Absorptance

  Material,
    Very High Reflectivity Surface,  !- Name
    Smooth,                  !- Roughness
    0.0005,                  !- Thickness {m}
    237,                     !- Conductivity {W/m-K}
    2702,                    !- Density {kg/m3}
    903,                     !- Specific Heat {J/kg-K}
    0.90,                    !- Thermal Absorptance
    0.05,                    !- Solar Absorptance
    0.05;                    !- Visible Absorptance

  Material,
    ASHRAE 90.1-2004_Sec 5.5-2_BUILT UP ROOFING 3/8 IN,  !- Name
    VeryRough,               !- Roughness
    0.0095,                  !- Thickness {m}
    0.1600,                  !- Conductivity {W/m-K}
    1121.2900,               !- Density {kg/m3}
    1460.0000,               !- Specific Heat {J/kg-K}
    0.9000,                  !- Thermal Absorptance
    0.7000,                  !- Solar Absorptance
    0.7000;                  !- Visible Absorptance

  Material,
    ASHRAE 90.1-2004_Sec 5.5-2_Roof Insulation_1,  !- Name
    MediumRough,             !- Roughness
    0.1250,                  !- Thickness {m}
    0.0490,                  !- Conductivity {W/m-K}
    265.0000,                !- Density {kg/m3}
    836.8000,                !- Specific Heat {J/kg-K}
    0.9000,                  !- Thermal Absorptance
    0.7000,                  !- Solar Absorptance
    0.7000;                  !- Visible Absorptance

  Material,
    ASHRAE 90.1-2004_Sec 5.5-2_MAT-METAL,  !- Name
    MediumSmooth,            !- Roughness
    0.0015,                  !- Thickness {m}
    45.0060,                 !- Conductivity {W/m-K}
    7680.0000,               !- Density {kg/m3}
    418.4000,                !- Specific Heat {J/kg-K}
    0.9000,                  !- Thermal Absorptance
    0.7000,                  !- Solar Absorptance
    0.3000;                  !- Visible Absorptance

  Material,
    ASHRAE 90.1-2004_Sec 5.5-2_GP01 1/2 GYPSUM,  !- Name
    Smooth,                  !- Roughness
    0.0127,                  !- Thickness {m}
    0.1600,                  !- Conductivity {W/m-K}
    800.0000,                !- Density {kg/m3}
    1090.0000,               !- Specific Heat {J/kg-K}
    0.9000,                  !- Thermal Absorptance
    0.7000,                  !- Solar Absorptance
    0.5000;                  !- Visible Absorptance

  Material,
    ASHRAE 90.1-2004_Sec 5.5-2_Wall Insulation_1,  !- Name
    MediumRough,             !- Roughness
    0.0376,                  !- Thickness {m}
    0.0450,                  !- Conductivity {W/m-K}
    265.0000,                !- Density {kg/m3}
    836.8000,                !- Specific Heat {J/kg-K}
    0.9000,                  !- Thermal Absorptance
    0.7000,                  !- Solar Absorptance
    0.7000;                  !- Visible Absorptance

  Material,
    ASHRAE 90.1-2004_Sec 5.5-2_MAT-CC05 8 HW CONCRETE,  !- Name
    Rough,                   !- Roughness
    0.2032,                  !- Thickness {m}
    1.3110,                  !- Conductivity {W/m-K}
    2240.0000,               !- Density {kg/m3}
    836.8000,                !- Specific Heat {J/kg-K}
    0.9000,                  !- Thermal Absorptance
    0.7000,                  !- Solar Absorptance
    0.7000;                  !- Visible Absorptance

  Material:NoMass,
    CP02 CARPET PAD,         !- Name
    VeryRough,               !- Roughness
    0.21648,                 !- Thermal Resistance {m2-K/W}
    0.9,                     !- Thermal Absorptance
    0.7,                     !- Solar Absorptance
    0.8;                     !- Visible Absorptance

  Material:NoMass,
    ASHRAE 90.1-2004_Sec 5.5-2_MAT-SHEATH,  !- Name
    Rough,                   !- Roughness
    0.3626,                  !- Thermal Resistance {m2-K/W}
    0.9000,                  !- Thermal Absorptance
    0.7000,                  !- Solar Absorptance
    0.7000;                  !- Visible Absorptance

  Material:NoMass,
    ASHRAE 90.1-2004_Sec 5.5-2_CP02 CARPET PAD,  !- Name
    VeryRough,               !- Roughness
    0.2165,                  !- Thermal Resistance {m2-K/W}
    0.9000,                  !- Thermal Absorptance
    0.7000,                  !- Solar Absorptance
    0.8000;                  !- Visible Absorptance

  Material:RoofVegetation,
    BaseEco,                 !- Name
    0.5,                     !- Height of Plants {m}
    5,                       !- Leaf Area Index {dimensionless}
    0.2,                     !- Leaf Reflectivity {dimensionless}
    0.95,                    !- Leaf Emissivity
    180,                     !- Minimum Stomatal Resistance {s/m}
    EcoRoofSoil,             !- Soil Layer Name
    MediumSmooth,            !- Roughness
    0.18,                    !- Thickness {m}
    0.4,                     !- Conductivity of Dry Soil {W/m-K}
    641,                     !- Density of Dry Soil {kg/m3}
    1100,                    !- Specific Heat of Dry Soil {J/kg-K}
    0.95,                    !- Thermal Absorptance
    0.8,                     !- Solar Absorptance
    0.7,                     !- Visible Absorptance
    0.4,                     !- Saturation Volumetric Moisture Content of the Soil Layer
    0.01,                    !- Residual Volumetric Moisture Content of the Soil Layer
    0.2,                     !- Initial Volumetric Moisture Content of the Soil Layer
    Simple;                  !- Moisture Diffusion Calculation Method

  Material:RoofVegetation,
    LowLAI,                  !- Name
    0.5,                     !- Height of Plants {m}
    0.5,                     !- Leaf Area Index {dimensionless}
    0.2,                     !- Leaf Reflectivity {dimensionless}
    0.95,                    !- Leaf Emissivity
    180,                     !- Minimum Stomatal Resistance {s/m}
    EcoRoofSoil,             !- Soil Layer Name
    MediumSmooth,            !- Roughness
    0.18,                    !- Thickness {m}
    0.4,                     !- Conductivity of Dry Soil {W/m-K}
    641,                     !- Density of Dry Soil {kg/m3}
    1100,                    !- Specific Heat of Dry Soil {J/kg-K}
    0.95,                    !- Thermal Absorptance
    0.8,                     !- Solar Absorptance
    0.7,                     !- Visible Absorptance
    0.4,                     !- Saturation Volumetric Moisture Content of the Soil Layer
    0.01,                    !- Residual Volumetric Moisture Content of the Soil Layer
    0.2,                     !- Initial Volumetric Moisture Content of the Soil Layer
    Simple;                  !- Moisture Diffusion Calculation Method

  Material:RoofVegetation,
    ThickSoil,               !- Name
    0.5,                     !- Height of Plants {m}
    5,                       !- Leaf Area Index {dimensionless}
    0.2,                     !- Leaf Reflectivity {dimensionless}
    0.95,                    !- Leaf Emissivity
    180,                     !- Minimum Stomatal Resistance {s/m}
    EcoRoofSoil,             !- Soil Layer Name
    MediumSmooth,            !- Roughness
    0.36,                    !- Thickness {m}
    0.4,                     !- Conductivity of Dry Soil {W/m-K}
    641,                     !- Density of Dry Soil {kg/m3}
    1100,                    !- Specific Heat of Dry Soil {J/kg-K}
    0.95,                    !- Thermal Absorptance
    0.8,                     !- Solar Absorptance
    0.7,                     !- Visible Absorptance
    0.4,                     !- Saturation Volumetric Moisture Content of the Soil Layer
    0.01,                    !- Residual Volumetric Moisture Content of the Soil Layer
    0.2,                     !- Initial Volumetric Moisture Content of the Soil Layer
    Simple;                  !- Moisture Diffusion Calculation Method

  WindowMaterial:Glazing,
    Clear Acrylic Plastic,   !- Name
    SpectralAverage,         !- Optical Data Type
    ,                        !- Window Glass Spectral Data Set Name
    0.003,                   !- Thickness {m}
    0.92,                    !- Solar Transmittance at Normal Incidence
    0.05,                    !- Front Side Solar Reflectance at Normal Incidence
    0.05,                    !- Back Side Solar Reflectance at Normal Incidence
    0.92,                    !- Visible Transmittance at Normal Incidence
    0.05,                    !- Front Side Visible Reflectance at Normal Incidence
    0.05,                    !- Back Side Visible Reflectance at Normal Incidence
    0.00,                    !- Infrared Transmittance at Normal Incidence
    0.90,                    !- Front Side Infrared Hemispherical Emissivity
    0.90,                    !- Back Side Infrared Hemispherical Emissivity
    0.90;                    !- Conductivity {W/m-K}

  WindowMaterial:Glazing,
    Diffusing Acrylic Plastic,  !- Name
    SpectralAverage,         !- Optical Data Type
    ,                        !- Window Glass Spectral Data Set Name
    0.0022,                  !- Thickness {m}
    0.90,                    !- Solar Transmittance at Normal Incidence
    0.08,                    !- Front Side Solar Reflectance at Normal Incidence
    0.08,                    !- Back Side Solar Reflectance at Normal Incidence
    0.90,                    !- Visible Transmittance at Normal Incidence
    0.08,                    !- Front Side Visible Reflectance at Normal Incidence
    0.08,                    !- Back Side Visible Reflectance at Normal Incidence
    0.00,                    !- Infrared Transmittance at Normal Incidence
    0.90,                    !- Front Side Infrared Hemispherical Emissivity
    0.90,                    !- Back Side Infrared Hemispherical Emissivity
    0.90;                    !- Conductivity {W/m-K}

  WindowMaterial:Glazing,
    ASHRAE 90.1-2004_Sec 5.5-2_Theoretical Glass 6,  !- Name
    SpectralAverage,         !- Optical Data Type
    ,                        !- Window Glass Spectral Data Set Name
    0.0030,                  !- Thickness {m}
    0.2387,                  !- Solar Transmittance at Normal Incidence
    0.7113,                  !- Front Side Solar Reflectance at Normal Incidence
    0.7113,                  !- Back Side Solar Reflectance at Normal Incidence
    0.2467,                  !- Visible Transmittance at Normal Incidence
    0.7033,                  !- Front Side Visible Reflectance at Normal Incidence
    0.7033,                  !- Back Side Visible Reflectance at Normal Incidence
    0.0000,                  !- Infrared Transmittance at Normal Incidence
    0.9990,                  !- Front Side Infrared Hemispherical Emissivity
    0.9990,                  !- Back Side Infrared Hemispherical Emissivity
    101.4580;                !- Conductivity {W/m-K}

  WindowMaterial:Glazing,
    ASHRAE 90.1-2004_Sec 5.5-2_Theoretical Glass 7,  !- Name
    SpectralAverage,         !- Optical Data Type
    ,                        !- Window Glass Spectral Data Set Name
    0.0030,                  !- Thickness {m}
    0.5945,                  !- Solar Transmittance at Normal Incidence
    0.3555,                  !- Front Side Solar Reflectance at Normal Incidence
    0.3555,                  !- Back Side Solar Reflectance at Normal Incidence
    0.6684,                  !- Visible Transmittance at Normal Incidence
    0.2816,                  !- Front Side Visible Reflectance at Normal Incidence
    0.2816,                  !- Back Side Visible Reflectance at Normal Incidence
    0.0000,                  !- Infrared Transmittance at Normal Incidence
    0.9990,                  !- Front Side Infrared Hemispherical Emissivity
    0.9990,                  !- Back Side Infrared Hemispherical Emissivity
    101.9480;                !- Conductivity {W/m-K}

  WindowMaterial:Glazing,
    ASHRAE 90.1-2004_Sec 5.5-2_Theoretical Glass 0,  !- Name
    SpectralAverage,         !- Optical Data Type
    ,                        !- Window Glass Spectral Data Set Name
    0.0030,                  !- Thickness {m}
    0.3480,                  !- Solar Transmittance at Normal Incidence
    0.6020,                  !- Front Side Solar Reflectance at Normal Incidence
    0.6020,                  !- Back Side Solar Reflectance at Normal Incidence
    0.3763,                  !- Visible Transmittance at Normal Incidence
    0.5737,                  !- Front Side Visible Reflectance at Normal Incidence
    0.5737,                  !- Back Side Visible Reflectance at Normal Incidence
    0.0000,                  !- Infrared Transmittance at Normal Incidence
    0.9990,                  !- Front Side Infrared Hemispherical Emissivity
    0.9990,                  !- Back Side Infrared Hemispherical Emissivity
    2.2444;                  !- Conductivity {W/m-K}

  Construction,
    InteriorFurnishings,     !- Name
    Wood 6inch;              !- Outside Layer

  Construction,
    INT-FLOOR-TOPSIDE,       !- Name
    MAT-CC05 4  MW CONCRETE, !- Outside Layer
    CP02 CARPET PAD;         !- Layer 2

  Construction,
    INT-FLOOR-UNDERSIDE,     !- Name
    CP02 CARPET PAD,         !- Outside Layer
    MAT-CC05 4  MW CONCRETE; !- Layer 2

  Construction,
    ASHRAE 90.1-2004_Sec 5.5-2_Roof,  !- Name
    BaseEco,                 !- Outside Layer
    ASHRAE 90.1-2004_Sec 5.5-2_Roof Insulation_1,  !- Layer 2
    ASHRAE 90.1-2004_Sec 5.5-2_MAT-METAL;  !- Layer 3

  Construction,
    ASHRAE 90.1-2004_Sec 5.5-2_Int-Wall,  !- Name
    ASHRAE 90.1-2004_Sec 5.5-2_GP01 1/2 GYPSUM,  !- Outside Layer
    ASHRAE 90.1-2004_Sec 5.5-2_GP01 1/2 GYPSUM;  !- Layer 2

  Construction,
    ASHRAE 90.1-2004_Sec 5.5-2_Ext-wall,  !- Name
    ASHRAE 90.1-2004_Sec 5.5-2_MAT-SHEATH,  !- Outside Layer
    ASHRAE 90.1-2004_Sec 5.5-2_Wall Insulation_1,  !- Layer 2
    ASHRAE 90.1-2004_Sec 5.5-2_GP01 1/2 GYPSUM;  !- Layer 3

  Construction,
    ASHRAE 90.1-2004_Sec 5.5-2_Ext-slab,  !- Name
    ASHRAE 90.1-2004_Sec 5.5-2_MAT-CC05 8 HW CONCRETE,  !- Outside Layer
    ASHRAE 90.1-2004_Sec 5.5-2_CP02 CARPET PAD;  !- Layer 2

  Construction,
    ASHRAE 90.1-2004_Sec 5.5-2_south_window,  !- Name
    ASHRAE 90.1-2004_Sec 5.5-2_Theoretical Glass 6;  !- Outside Layer

  Construction,
    ASHRAE 90.1-2004_Sec 5.5-2_east_window,  !- Name
    ASHRAE 90.1-2004_Sec 5.5-2_Theoretical Glass 6;  !- Outside Layer

  Construction,
    ASHRAE 90.1-2004_Sec 5.5-2_north_window,  !- Name
    ASHRAE 90.1-2004_Sec 5.5-2_Theoretical Glass 7;  !- Outside Layer

  Construction,
    ASHRAE 90.1-2004_Sec 5.5-2_west_window,  !- Name
    ASHRAE 90.1-2004_Sec 5.5-2_Theoretical Glass 6;  !- Outside Layer

  Zone,
    ZN1_S_Space_1,           !- Name
    0,                       !- Direction of Relative North {deg}
    0.000,                   !- X Origin {m}
    0.000,                   !- Y Origin {m}
    0.000,                   !- Z Origin {m}
    1,                       !- Type
    1,                       !- Multiplier
    3.800,                   !- Ceiling Height {m}
    354.787,                 !- Volume {m3}
    autocalculate,           !- Floor Area {m2}
    ,                        !- Zone Inside Convection Algorithm
    ,                        !- Zone Outside Convection Algorithm
    YES;                     !- Part of Total Floor Area

  Zone,
    ZN2_E_Space_1,           !- Name
    0,                       !- Direction of Relative North {deg}
    20.430,                  !- X Origin {m}
    4.570,                   !- Y Origin {m}
    0.000,                   !- Z Origin {m}
    1,                       !- Type
    1,                       !- Multiplier
    3.800,                   !- Ceiling Height {m}
    354.787,                 !- Volume {m3}
    autocalculate,           !- Floor Area {m2}
    ,                        !- Zone Inside Convection Algorithm
    ,                        !- Zone Outside Convection Algorithm
    YES;                     !- Part of Total Floor Area

  Zone,
    ZN3_N_Space_1,           !- Name
    0,                       !- Direction of Relative North {deg}
    4.570,                   !- X Origin {m}
    20.430,                  !- Y Origin {m}
    0.000,                   !- Z Origin {m}
    1,                       !- Type
    1,                       !- Multiplier
    3.800,                   !- Ceiling Height {m}
    354.787,                 !- Volume {m3}
    autocalculate,           !- Floor Area {m2}
    ,                        !- Zone Inside Convection Algorithm
    ,                        !- Zone Outside Convection Algorithm
    YES;                     !- Part of Total Floor Area

  Zone,
    ZN4_W_Space_1,           !- Name
    0,                       !- Direction of Relative North {deg}
    0.000,                   !- X Origin {m}
    0.000,                   !- Y Origin {m}
    0.000,                   !- Z Origin {m}
    1,                       !- Type
    1,                       !- Multiplier
    3.800,                   !- Ceiling Height {m}
    354.787,                 !- Volume {m3}
    autocalculate,           !- Floor Area {m2}
    ,                        !- Zone Inside Convection Algorithm
    ,                        !- Zone Outside Convection Algorithm
    YES;                     !- Part of Total Floor Area

  Zone,
    ZN5_Core_Space_1,        !- Name