! QTFtest.idf
! Basic file description: Basic test for EnergyPlus  Uses QTFs.
! Run:      2 design days.
! Building: Fictional 1 zone building with resistive walls.  No floor.  No Roof.
! Internal: None.
! System:   None.
! Plant:    None.
! SolDis=MinimalShadowing, Aniso, Detailed Interior and Exterior Convection

  Version,24.1;

  Timestep,1;

  Building,
    NONE,                    !- Name
    0.0000000E+00,           !- North Axis {deg}
    Suburbs,                 !- Terrain
    3.9999999E-02,           !- Loads Convergence Tolerance Value {W}
    4.0000002E-03,           !- Temperature Convergence Tolerance Value {deltaC}
    MinimalShadowing,        !- Solar Distribution
    25,                      !- Maximum Number of Warmup Days
    6;                       !- Minimum Number of Warmup Days

  HeatBalanceAlgorithm,ConductionTransferFunction;

  SurfaceConvectionAlgorithm:Inside,TARP;

  SurfaceConvectionAlgorithm:Outside,DOE-2;

  SimulationControl,
    No,                      !- Do Zone Sizing Calculation
    No,                      !- Do System Sizing Calculation
    No,                      !- Do Plant Sizing Calculation
    Yes,                     !- Run Simulation for Sizing Periods
    No,                      !- Run Simulation for Weather File Run Periods
    No,                      !- Do HVAC Sizing Simulation for Sizing Periods
    1;                       !- Maximum Number of HVAC Sizing Simulation Passes

  RunPeriod,
    Run Period 1,            !- Name
    1,                       !- Begin Month
    1,                       !- Begin Day of Month
    ,                        !- Begin Year
    12,                      !- End Month
    31,                      !- End Day of Month
    ,                        !- End Year
    Tuesday,                 !- Day of Week for Start Day
    Yes,                     !- Use Weather File Holidays and Special Days
    Yes,                     !- Use Weather File Daylight Saving Period
    No,                      !- Apply Weekend Holiday Rule
    Yes,                     !- Use Weather File Rain Indicators
    Yes;                     !- Use Weather File Snow Indicators

  Site:Location,
    DENVER_STAPLETON_CO_USA_WMO_724690,  !- Name
    39.77,                   !- Latitude {deg}
    -104.87,                 !- Longitude {deg}
    -7.00,                   !- Time Zone {hr}
    1611.00;                 !- Elevation {m}

 ! DENVER_STAPLETON_CO_USA Annual Heating 99.6%, MaxDB=-20°C

  SizingPeriod:DesignDay,
    DENVER_STAPLETON Ann Htg 99.6% Condns DB,  !- Name
    12,                      !- Month
    21,                      !- Day of Month
    WinterDesignDay,         !- Day Type
    -20,                     !- Maximum Dry-Bulb Temperature {C}
    0.0,                     !- Daily Dry-Bulb Temperature Range {deltaC}
    ,                        !- Dry-Bulb Temperature Range Modifier Type
    ,                        !- Dry-Bulb Temperature Range Modifier Day Schedule Name
    Wetbulb,                 !- Humidity Condition Type
    -20,                     !- Wetbulb or DewPoint at Maximum Dry-Bulb {C}
    ,                        !- Humidity Condition Day Schedule Name
    ,                        !- Humidity Ratio at Maximum Dry-Bulb {kgWater/kgDryAir}
    ,                        !- Enthalpy at Maximum Dry-Bulb {J/kg}
    ,                        !- Daily Wet-Bulb Temperature Range {deltaC}
    83411.,                  !- Barometric Pressure {Pa}
    2.3,                     !- Wind Speed {m/s}
    180,                     !- Wind Direction {deg}
    No,                      !- Rain Indicator
    No,                      !- Snow Indicator
    No,                      !- Daylight Saving Time Indicator
    ASHRAEClearSky,          !- Solar Model Indicator
    ,                        !- Beam Solar Day Schedule Name
    ,                        !- Diffuse Solar Day Schedule Name
    ,                        !- ASHRAE Clear Sky Optical Depth for Beam Irradiance (taub) {dimensionless}
    ,                        !- ASHRAE Clear Sky Optical Depth for Diffuse Irradiance (taud) {dimensionless}
    0.00;                    !- Sky Clearness

 ! DENVER_STAPLETON_CO_USA Annual Cooling (DB=>MWB) .4%, MaxDB=34.1°C MWB=15.8°C

  SizingPeriod:DesignDay,
    DENVER_STAPLETON Ann Clg .4% Condns DB=>MWB,  !- Name
    7,                       !- Month
    21,                      !- Day of Month
    SummerDesignDay,         !- Day Type
    34.1,                    !- Maximum Dry-Bulb Temperature {C}
    15.2,                    !- Daily Dry-Bulb Temperature Range {deltaC}
    ,                        !- Dry-Bulb Temperature Range Modifier Type
    ,                        !- Dry-Bulb Temperature Range Modifier Day Schedule Name
    Wetbulb,                 !- Humidity Condition Type
    15.8,                    !- Wetbulb or DewPoint at Maximum Dry-Bulb {C}
    ,                        !- Humidity Condition Day Schedule Name
    ,                        !- Humidity Ratio at Maximum Dry-Bulb {kgWater/kgDryAir}
    ,                        !- Enthalpy at Maximum Dry-Bulb {J/kg}
    ,                        !- Daily Wet-Bulb Temperature Range {deltaC}
    83411.,                  !- Barometric Pressure {Pa}
    4,                       !- Wind Speed {m/s}
    120,                     !- Wind Direction {deg}
    No,                      !- Rain Indicator
    No,                      !- Snow Indicator
    No,                      !- Daylight Saving Time Indicator
    ASHRAEClearSky,          !- Solar Model Indicator
    ,                        !- Beam Solar Day Schedule Name
    ,                        !- Diffuse Solar Day Schedule Name
    ,                        !- ASHRAE Clear Sky Optical Depth for Beam Irradiance (taub) {dimensionless}
    ,                        !- ASHRAE Clear Sky Optical Depth for Diffuse Irradiance (taud) {dimensionless}
    1.00;                    !- Sky Clearness

  Material:NoMass,
    R13LAYER,                !- Name
    Rough,                   !- Roughness
    2.290965,                !- Thermal Resistance {m2-K/W}
    0.9000000,               !- Thermal Absorptance
    0.7500000,               !- Solar Absorptance
    0.7500000;               !- Visible Absorptance

  Material,
    CONCRETE - DRIED SAND AND GRAVEL 4 IN,  !- Name
    MediumRough,             !- Roughness
    0.1000000,               !- Thickness {m}
    1.290000,                !- Conductivity {W/m-K}
    2242.580,                !- Density {kg/m3}
    830.00000,               !- Specific Heat {J/kg-K}
    0.9000000,               !- Thermal Absorptance
    0.6000000,               !- Solar Absorptance
    0.6000000;               !- Visible Absorptance

  Material,
    INS - EXPANDED EXT POLYSTYRENE R12 2 IN,  !- Name
    Rough,                   !- Roughness
    5.0000001E-02,           !- Thickness {m}
    2.0000000E-02,           !- Conductivity {W/m-K}
    56.06000,                !- Density {kg/m3}
    1210.000,                !- Specific Heat {J/kg-K}
    0.9000000,               !- Thermal Absorptance
    0.5000000,               !- Solar Absorptance
    0.5000000;               !- Visible Absorptance

  Material,
    GYP1,                    !- Name
    MediumRough,             !- Roughness
    1.2700000E-02,           !- Thickness {m}
    7.8450000E-01,           !- Conductivity {W/m-K}
    1842.1221,               !- Density {kg/m3}
    988.000,                 !- Specific Heat {J/kg-K}
    0.9000000,               !- Thermal Absorptance
    0.5000000,               !- Solar Absorptance
    0.5000000;               !- Visible Absorptance

  Material,
    GYP2,                    !- Name
    MediumRough,             !- Roughness
    1.9050000E-02,           !- Thickness {m}
    7.8450000E-01,           !- Conductivity {W/m-K}
    1842.1221,               !- Density {kg/m3}
    988.000,                 !- Specific Heat {J/kg-K}
    0.9000000,               !- Thermal Absorptance
    0.5000000,               !- Solar Absorptance
    0.5000000;               !- Visible Absorptance

  Material,
    FINISH FLOORING - TILE 1 / 16 IN,  !- Name
    Smooth,                  !- Roughness
    1.6000000E-03,           !- Thickness {m}
    0.1700000,               !- Conductivity {W/m-K}
    1922.210,                !- Density {kg/m3}
    1250.000,                !- Specific Heat {J/kg-K}
    0.9000000,               !- Thermal Absorptance
    0.5000000,               !- Solar Absorptance
    0.5000000;               !- Visible Absorptance

  Material,
    C10 - 8 IN HW CONCRETE,  !- Name
    MediumRough,             !- Roughness
    0.2033016,               !- Thickness {m}
    1.729577,                !- Conductivity {W/m-K}
    2242.585,                !- Density {kg/m3}
    836.8000,                !- Specific Heat {J/kg-K}
    0.9000000,               !- Thermal Absorptance
    0.6500000,               !- Solar Absorptance
    0.6500000;               !- Visible Absorptance

  Material,
    E2 - 1 / 2 IN SLAG OR STONE,  !- Name
    Rough,                   !- Roughness
    1.2710161E-02,           !- Thickness {m}
    1.435549,                !- Conductivity {W/m-K}
    881.0155,                !- Density {kg/m3}
    1673.600,                !- Specific Heat {J/kg-K}
    0.9000000,               !- Thermal Absorptance
    0.5500000,               !- Solar Absorptance
    0.5500000;               !- Visible Absorptance

  Material,
    E3 - 3 / 8 IN FELT AND MEMBRANE,  !- Name
    Rough,                   !- Roughness
    9.5402403E-03,           !- Thickness {m}
    0.1902535,               !- Conductivity {W/m-K}
    1121.292,                !- Density {kg/m3}
    1673.600,                !- Specific Heat {J/kg-K}
    0.9000000,               !- Thermal Absorptance
    0.7500000,               !- Solar Absorptance
    0.7500000;               !- Visible Absorptance

  Material,
    B5 - 1 IN DENSE INSULATION,  !- Name
    VeryRough,               !- Roughness
    2.5E-02,                 !- Thickness {m}
    4.0E-02,                 !- Conductivity {W/m-K}
    91.30524,                !- Density {kg/m3}
    836.8000,                !- Specific Heat {J/kg-K}
    0.9000000,               !- Thermal Absorptance
    0.5000000,               !- Solar Absorptance
    0.5000000;               !- Visible Absorptance

  Material,
    C12 - 2 IN HW CONCRETE,  !- Name
    MediumRough,             !- Roughness
    5.0901599E-02,           !- Thickness {m}
    1.729577,                !- Conductivity {W/m-K}
    2242.585,                !- Density {kg/m3}
    836.8000,                !- Specific Heat {J/kg-K}
    0.9000000,               !- Thermal Absorptance
    0.6500000,               !- Solar Absorptance
    0.6500000;               !- Visible Absorptance

  Construction,
    R13WALL,                 !- Name
    R13LAYER;                !- Outside Layer

  Construction,
    FLOOR SLAB 8 IN,         !- Name
    C10 - 8 IN HW CONCRETE;  !- Outside Layer

  Construction,
    ROOF34,                  !- Name
    E2 - 1 / 2 IN SLAG OR STONE,  !- Outside Layer
    E3 - 3 / 8 IN FELT AND MEMBRANE,  !- Layer 2
    B5 - 1 IN DENSE INSULATION,  !- Layer 3
    C12 - 2 IN HW CONCRETE;  !- Layer 4

  Site:GroundTemperature:BuildingSurface,18.89,18.92,19.02,19.12,19.21,19.23,19.07,19.32,19.09,19.21,19.13,18.96;

  Zone,
    ZONE ONE,                !- Name
    0.0000000E+00,           !- Direction of Relative North {deg}
    0.0000000E+00,           !- X Origin {m}
    0.0000000E+00,           !- Y Origin {m}
    0.0000000E+00,           !- Z Origin {m}
    1,                       !- Type
    1,                       !- Multiplier
    autocalculate,           !- Ceiling Height {m}
    autocalculate,           !- Volume {m3}
    232.26;                  !- Floor Area {m2}

  ScheduleTypeLimits,
    Fraction,                !- Name
    0.0,                     !- Lower Limit Value
    1.0,                     !- Upper Limit Value
    CONTINUOUS;              !- Numeric Type

  GlobalGeometryRules,
    UpperLeftCorner,         !- Starting Vertex Position
    CounterClockWise,        !- Vertex Entry Direction
    World;                   !- Coordinate System

  BuildingSurface:Detailed,
    Zn001:Wall001,           !- Name
    Wall,                    !- Surface Type
    R13WALL,                 !- Construction Name
    ZONE ONE,                !- Zone Name
    ,                        !- Space Name
    Outdoors,                !- Outside Boundary Condition
    ,                        !- Outside Boundary Condition Object
    SunExposed,              !- Sun Exposure
    WindExposed,             !- Wind Exposure
    0.5000000,               !- View Factor to Ground
    4,                       !- Number of Vertices
    0.0000000E+00,0.0000000E+00,4.572000,  !- X,Y,Z ==> Vertex 1 {m}
    0.0000000E+00,0.0000000E+00,0.0000000E+00,  !- X,Y,Z ==> Vertex 2 {m}
    15.24000,0.0000000E+00,0.0000000E+00,  !- X,Y,Z ==> Vertex 3 {m}
    15.24000,0.0000000E+00,4.572000;  !- X,Y,Z ==> Vertex 4 {m}

  BuildingSurface:Detailed,
    Zn001:Wall002,           !- Name
    Wall,                    !- Surface Type
    R13WALL,                 !- Construction Name
    ZONE ONE,                !- Zone Name
    ,                        !- Space Name
    Outdoors,                !- Outside Boundary Condition
    ,                        !- Outside Boundary Condition Object
    SunExposed,              !- Sun Exposure
    WindExposed,             !- Wind Exposure
    0.5000000,               !- View Factor to Ground
    4,                       !- Number of Vertices
    15.24000,0.0000000E+00,4.572000,  !- X,Y,Z ==> Vertex 1 {m}
    15.24000,0.0000000E+00,0.0000000E+00,  !- X,Y,Z ==> Vertex 2 {m}
    15.24000,15.24000,0.0000000E+00,  !- X,Y,Z ==> Vertex 3 {m}
    15.24000,15.24000,4.572000;  !- X,Y,Z ==> Vertex 4 {m}

  BuildingSurface:Detailed,
    Zn001:Wall003,           !- Name
    Wall,                    !- Surface Type
    R13WALL,                 !- Construction Name
    ZONE ONE,                !- Zone Name
    ,                        !- Space Name
    Outdoors,                !- Outside Boundary Condition
    ,                        !- Outside Boundary Condition Object
    SunExposed,              !- Sun Exposure
    WindExposed,             !- Wind Exposure
    0.5000000,               !- View Factor to Ground
    4,                       !- Number of Vertices
    15.24000,15.24000,4.572000,  !- X,Y,Z ==> Vertex 1 {m}
    15.24000,15.24000,0.0000000E+00,  !- X,Y,Z ==> Vertex 2 {m}
    0.0000000E+00,15.24000,0.0000000E+00,  !- X,Y,Z ==> Vertex 3 {m}
    0.0000000E+00,15.24000,4.572000;  !- X,Y,Z ==> Vertex 4 {m}

  BuildingSurface:Detailed,
    Zn001:Wall004,           !- Name
    Wall,                    !- Surface Type
    R13WALL,                 !- Construction Name
    ZONE ONE,                !- Zone Name
    ,                        !- Space Name
    Outdoors,                !- Outside Boundary Condition
    ,                        !- Outside Boundary Condition Object
    SunExposed,              !- Sun Exposure
    WindExposed,             !- Wind Exposure
    0.5000000,               !- View Factor to Ground
    4,                       !- Number of Vertices
    0.0000000E+00,15.24000,4.572000,  !- X,Y,Z ==> Vertex 1 {m}
    0.0000000E+00,15.24000,0.0000000E+00,  !- X,Y,Z ==> Vertex 2 {m}
    0.0000000E+00,0.0000000E+00,0.0000000E+00,  !- X,Y,Z ==> Vertex 3 {m}
    0.0000000E+00,0.0000000E+00,4.572000;  !- X,Y,Z ==> Vertex 4 {m}

  BuildingSurface:Detailed,
    Zn001:Flr001,            !- Name
    Floor,                   !- Surface Type
    FLOOR SLAB 8 IN,         !- Construction Name
    ZONE ONE,                !- Zone Name
    ,                        !- Space Name
    Surface,                 !- Outside Boundary Condition
    Zn001:Flr001,            !- Outside Boundary Condition Object
    NoSun,                   !- Sun Exposure
    NoWind,                  !- Wind Exposure
    1.000000,                !- View Factor to Ground
    4,                       !- Number of Vertices
    0,0,0,  !- X,Y,Z ==> Vertex 1 {m}
    0,15.24,0,  !- X,Y,Z ==> Vertex 2 {m}
    15.24,15.24,0,  !- X,Y,Z ==> Vertex 3 {m}
    15.24,0,0;  !- X,Y,Z ==> Vertex 4 {m}

  BuildingSurface:Detailed,
    Zn002:Roof001,           !- Name
    Roof,                    !- Surface Type
    ROOF34,                  !- Construction Name
    ZONE ONE,                !- Zone Name
    ,                        !- Space Name
    Outdoors,                !- Outside Boundary Condition
    ,                        !- Outside Boundary Condition Object
    SunExposed,              !- Sun Exposure
    WindExposed,             !- Wind Exposure
    0,                       !- View Factor to Ground
    4,                       !- Number of Vertices
    0,0,4.572,  !- X,Y,Z ==> Vertex 1 {m}
    15.24,0,4.572,  !- X,Y,Z ==> Vertex 2 {m}
    15.24,15.24,4.572,  !- X,Y,Z ==> Vertex 3 {m}
    0,15.24,4.572;  !- X,Y,Z ==> Vertex 4 {m}

  Output:Variable,*,Site Outdoor Air Drybulb Temperature,hourly;

  Output:Variable,*,Zone Mean Air Temperature,hourly;

  Output:Variable,*,Zone Total Internal Latent Gain Energy,hourly;

  Output:Variable,*,Zone Mean Radiant Temperature,hourly;

  Output:Variable,*,Zone Mean Radiant Temperature,hourly;

  Output:Variable,*,Surface Inside Face Temperature,daily;

  Output:Variable,*,Surface Outside Face Temperature,daily;

  Output:Variable,*,Surface Inside Face Convection Heat Transfer Coefficient,daily;

  Output:Variable,*,Surface Outside Face Convection Heat Transfer Coefficient,daily;

  Output:VariableDictionary,Regular;

  Output:Surfaces:Drawing,dxf;

  Output:Constructions,Constructions;

  Output:Meter:MeterFileOnly,Carbon Equivalent:Facility,hourly;

  Output:Meter:MeterFileOnly,EnergyTransfer:Building,hourly;

  Output:Meter:MeterFileOnly,EnergyTransfer:Facility,hourly;

  OutputControl:Table:Style,
    HTML;                    !- Column Separator

  Output:Table:SummaryReports,
    AllSummary;              !- Report 1 Name

