!-Generator IDFEditor 1.42
!-Option OriginalOrderTop UseSpecialFormat
!-NOTE: All comments with '!-' are ignored by the IDFEditor and are generated automatically.
!-      Use '!' comments if they need to be retained when using the IDFEditor.
! RefBldgHospitalNew2004_Chicago.idf
!
! This example file is based on Version 1.3_5.0 and was transitioned to Version 6.0 using the transition utility
!
! DOE Commercial Reference Building
! Hospital, new construction 90.1-2004
! Version 1.3_5.0
! EnergyPlus Version 6.0
! ASHRAE Standards 90.1-2004 and 62-1999
!
! Description:  Five story hospital
! Form:         Area = 22,422 m2 (241,351 ft2); Number of Stories = 5 + Basement; Aspect ratio = 1.31
! Envelope:     Envelope thermal properties vary with climate according to ASHRAE Standard 90.1-2004.
!               Opaque constructions: mass walls; built-up flat roof (insulation above deck); basement
!               Windows: window-to-wall ratio = 11.2% (N), 12.1% (E), 13.3% (S), 23.2%(W), 14.6% (overall)
!               Infiltration in perimeter zones only
!                            = 0.4 cfm/ft2 above grade wall area at 0.3 in wc (75 Pa) adjusted to 0.016 in wc (4 Pa).
!                              25% of full value when ventilation system on.
! HVAC:         Water cooled electric chiller, natural gas boiler, 2 VAV systems, 2 CAV systems
!               Economizer per 90.1-2004 on VAV systems
!               Chiller part load curve corrected from original
!
! Exhaust:      Kitchen exhaust 2501 L/s (5300 cfm), 30% of exhaust make-up air from dining
!               Kitchen exhaust fan modeled as exterior load to avoid getting double make-up air
! Refrigeration: Walk-in cooler and walk-in freezer
! Elevators:    8 @ 25 HP each, 91% motor efficiency, motor heat exhausted directly
!
! Int. gains:   W/m2 (W/ft2)  lights          elec plug       gas plug
!               Basement      11.8 (1.1)      8.07 (0.75)     0
!               ER Rooms      29.1 (2.7)      16.0 (1.5)      0
!               Trauma        29.1 (2.7)      43.0 (4.0)      0
!               Triage        29.1 (2.7)      29.1 (2.7)      0
!               OR Rooms      23.7 (2.2)      43.0 (4.0)      0
!               Nurse Stat.   12.7 (1.2)      11.2 (1.0)      0
!               ICU Rooms     8.61 (0.8)      32.3 (3.0)      0
!               Pat. Rooms    7.53 (0.7)      21.5 (2.0)      0
!               Lobby         15.8 (1.5)      1.08 (0.1)      0
!               Corridor      10.7 (1.0)      0.0 (0.0)       0
!               Office        11.8 (1.1)      10.8 (1.0)      0
!               Lab           15.1 (1.4)      43.0 (4.0)      0
!               Kitchen       12.9 (1.2)      80.7 (7.5)      305 (28.3)
!               Dining areas  9.68 (0.9)      10.8 (1.0)      0
!
! Detached Shading:               None
! Daylight:                       None
! Natural Ventilation:            None
! Zonal Equipment:                None
! Air Primary Loops:              VAV with Hot Water Reheat, CAV with Hot Water Reheat
! Plant Loops:                    SHWSys1, HeatSys1, CoolSys1, TowerWaterSys
! System Equipment Autosize:      Yes
! Purchased Cooling:              None
! Purchased Heating:              None
! Coils:                          Coil:Cooling:Water:DetailedGeometry; Coil:Heating:Water
! Pumps:                          Yes
! Boilers:                        Boiler:HotWater (gas-fired)
! Chillers:                       Chiller:Electric:ReformulatedEIR (water-cooled)
!***** NOTICE *****
!***** The Reference Buildings were prepared as an account of work sponsored by an *****
!***** agency of the United States government. Neither the United States *****
!***** government nor any agency thereof, nor any of their employees, makes *****
!***** any warranty, express or implied, or assumes any legal liability or *****
!***** responsibility for the accuracy, completeness, or usefulness of any *****
!***** information, apparatus, product, or process disclosed, or represents *****
!***** that its use would not infringe privately owned rights. Reference *****
!***** herein to any specific commercial product, process, or service by *****
!***** trade name, trademark, manufacturer, or otherwise does not necessarily *****
!***** constitute or imply its endorsement, recommendation, or favoring by *****
!***** the United States government or any agency thereof. The views and *****
!***** opinions of authors expressed herein do not necessarily state or *****
!***** reflect those of the United States government or any agency thereof. *****
!***** Access to and use of the Reference Buildings imposes the following obligations *****
!***** on the user. The user agrees to credit DOE, NREL, PNNL, and LBNL in *****
!***** any publication(s) that that result from the use of Reference Buildings. *****
!***** However, the names of DOE/NREL/PNNL/LBNL may not be used in any *****
!***** advertising or publicity that implies endorsement or promotion of any *****
!***** products, services or commercial entities. *****
! Reference citation for the Commercial Reference Buildings:
! Deru, M.; Field, K.; Studer, D.; Benne, K.; Griffith, B.; Torcellini, P;
! Halverson, M.; Winiarski, D.; Liu, B.; Rosenberg, M.; Huang, J.;
! Yazdanian, M.; Crawley, D. (2010).
! U.S. Department of Energy Commercial Reference Building Models of the National Building Stock.
! Washington, DC: U.S. Department of Energy, Energy Efficiency and
! Renewable Energy, Office of Building Technologies.
! ***GENERAL SIMULATION PARAMETERS***
! Number of Zones: 55

  Version,9.3;

  SimulationControl,
    YES,                     !- Do Zone Sizing Calculation
    YES,                     !- Do System Sizing Calculation
    YES,                     !- Do Plant Sizing Calculation
    YES,                     !- Run Simulation for Sizing Periods
    NO;                      !- Run Simulation for Weather File Run Periods

  Building,
    Ref Bldg Hospital New2004_v1.3_5.0,  !- Name
    0.0000,                  !- North Axis {deg}
    City,                    !- Terrain
    0.0400,                  !- Loads Convergence Tolerance Value {W}
    0.2000,                  !- Temperature Convergence Tolerance Value {deltaC}
    FullInteriorAndExterior, !- Solar Distribution
    25,                      !- Maximum Number of Warmup Days
    6;                       !- Minimum Number of Warmup Days

  RunPeriod,
    Run Period 1,            !- Name
    1,                       !- Begin Month
    1,                       !- Begin Day of Month
    ,                        !- Begin Year
    12,                      !- End Month
    31,                      !- End Day of Month
    ,                        !- End Year
    Sunday,                  !- Day of Week for Start Day
    No,                      !- Use Weather File Holidays and Special Days
    No,                      !- Use Weather File Daylight Saving Period
    No,                      !- Apply Weekend Holiday Rule
    Yes,                     !- Use Weather File Rain Indicators
    Yes;                     !- Use Weather File Snow Indicators

! ***HOLIDAYS & DAYLIGHT SAVINGS***

  RunPeriodControl:DaylightSavingTime,
    2nd Sunday in March,     !- Start Date
    1st Sunday in November;  !- End Date

  RunPeriodControl:SpecialDays,
    New Years Day,           !- Name
    January 1,               !- Start Date
    1,                       !- Duration {days}
    Holiday;                 !- Special Day Type

  RunPeriodControl:SpecialDays,
    Veterans Day,            !- Name
    November 11,             !- Start Date
    1,                       !- Duration {days}
    Holiday;                 !- Special Day Type

  RunPeriodControl:SpecialDays,
    Christmas,               !- Name
    December 25,             !- Start Date
    1,                       !- Duration {days}
    Holiday;                 !- Special Day Type

  RunPeriodControl:SpecialDays,
    Independence Day,        !- Name
    July 4,                  !- Start Date
    1,                       !- Duration {days}
    Holiday;                 !- Special Day Type

  RunPeriodControl:SpecialDays,
    MLK Day,                 !- Name
    3rd Monday in January,   !- Start Date
    1,                       !- Duration {days}
    Holiday;                 !- Special Day Type

  RunPeriodControl:SpecialDays,
    Presidents Day,          !- Name
    3rd Monday in February,  !- Start Date
    1,                       !- Duration {days}
    Holiday;                 !- Special Day Type

  RunPeriodControl:SpecialDays,
    Memorial Day,            !- Name
    Last Monday in May,      !- Start Date
    1,                       !- Duration {days}
    Holiday;                 !- Special Day Type

  RunPeriodControl:SpecialDays,
    Labor Day,               !- Name
    1st Monday in September, !- Start Date
    1,                       !- Duration {days}
    Holiday;                 !- Special Day Type

  RunPeriodControl:SpecialDays,
    Columbus Day,            !- Name
    2nd Monday in October,   !- Start Date
    1,                       !- Duration {days}
    Holiday;                 !- Special Day Type

  RunPeriodControl:SpecialDays,
    Thanksgiving,            !- Name
    4th Thursday in November,!- Start Date
    1,                       !- Duration {days}
    Holiday;                 !- Special Day Type

! ***SCHEDULE TYPES***

  ScheduleTypeLimits,
    Any Number;              !- Name

  ScheduleTypeLimits,
    Fraction,                !- Name
    0.0,                     !- Lower Limit Value
    1.0,                     !- Upper Limit Value
    CONTINUOUS;              !- Numeric Type

  ScheduleTypeLimits,
    Temperature,             !- Name
    -60,                     !- Lower Limit Value
    200,                     !- Upper Limit Value
    CONTINUOUS;              !- Numeric Type

  ScheduleTypeLimits,
    On/Off,                  !- Name
    0,                       !- Lower Limit Value
    1,                       !- Upper Limit Value
    DISCRETE;                !- Numeric Type

  ScheduleTypeLimits,
    Control Type,            !- Name
    0,                       !- Lower Limit Value
    4,                       !- Upper Limit Value
    DISCRETE;                !- Numeric Type

  ScheduleTypeLimits,
    Humidity,                !- Name
    10,                      !- Lower Limit Value
    90,                      !- Upper Limit Value
    CONTINUOUS;              !- Numeric Type

  ScheduleTypeLimits,
    Number;                  !- Name

! ***ALWAYS ON SCHEDULE***

  Schedule:Compact,
    ALWAYS_ON,               !- Name
    On/Off,                  !- Schedule Type Limits Name
    Through: 12/31,          !- Field 1
    For: AllDays,            !- Field 2
    Until: 24:00,1;          !- Field 3

! ***MISC SIMULATION PARAMETERS***

  SurfaceConvectionAlgorithm:Inside,TARP;

  SurfaceConvectionAlgorithm:Outside,DOE-2;

  HeatBalanceAlgorithm,ConductionTransferFunction,200.0000;

  ZoneAirHeatBalanceAlgorithm,
    AnalyticalSolution;      !- Algorithm

  Sizing:Parameters,
    1.2,                     !- Heating Sizing Factor
    1.2,                     !- Cooling Sizing Factor
    4;                       !- Timesteps in Averaging Window

  ConvergenceLimits,
    2,                       !- Minimum System Timestep {minutes}
    25;                      !- Maximum HVAC Iterations

  ShadowCalculation,
    PolygonClipping,         !- Shading Calculation Method
    Periodic,                !- Shading Calculation Update Frequency Method
    7,                       !- Shading Calculation Update Frequency
    15000;                   !- Maximum Figures in Shadow Overlap Calculations

  Timestep,4;

! WeatherFileName=USA_IL_Chicago-OHare_TMY2.epw

  Site:Location,
    USA IL-CHICAGO-OHARE,    !- Name
    41.77,                   !- Latitude {deg}
    -87.75,                  !- Longitude {deg}
    -6.00,                   !- Time Zone {hr}
    190;                     !- Elevation {m}

! CHICAGO_IL_USA Annual Heating 99.6%, MaxDB=-20.6°C

  SizingPeriod:DesignDay,
    CHICAGO Ann Htg 99.6% Condns DB,  !- Name
    1,                       !- Month
    21,                      !- Day of Month
    WinterDesignDay,         !- Day Type
    -20.6,                   !- Maximum Dry-Bulb Temperature {C}
    0.0,                     !- Daily Dry-Bulb Temperature Range {deltaC}
    ,                        !- Dry-Bulb Temperature Range Modifier Type
    ,                        !- Dry-Bulb Temperature Range Modifier Day Schedule Name
    Wetbulb,                 !- Humidity Condition Type
    -20.6,                   !- Wetbulb or DewPoint at Maximum Dry-Bulb {C}
    ,                        !- Humidity Condition Day Schedule Name
    ,                        !- Humidity Ratio at Maximum Dry-Bulb {kgWater/kgDryAir}
    ,                        !- Enthalpy at Maximum Dry-Bulb {J/kg}
    ,                        !- Daily Wet-Bulb Temperature Range {deltaC}
    99063.,                  !- Barometric Pressure {Pa}
    4.9,                     !- Wind Speed {m/s}
    270,                     !- Wind Direction {deg}
    No,                      !- Rain Indicator
    No,                      !- Snow Indicator
    No,                      !- Daylight Saving Time Indicator
    ASHRAEClearSky,          !- Solar Model Indicator
    ,                        !- Beam Solar Day Schedule Name
    ,                        !- Diffuse Solar Day Schedule Name
    ,                        !- ASHRAE Clear Sky Optical Depth for Beam Irradiance (taub) {dimensionless}
    ,                        !- ASHRAE Clear Sky Optical Depth for Diffuse Irradiance (taud) {dimensionless}
    0.00;                    !- Sky Clearness

! CHICAGO_IL_USA Annual Cooling (WB=>MDB) .4%, MDB=31.2°C WB=25.5°C

  SizingPeriod:DesignDay,
    CHICAGO Ann Clg .4% Condns WB=>MDB,  !- Name
    7,                       !- Month
    21,                      !- Day of Month
    SummerDesignDay,         !- Day Type
    31.2,                    !- Maximum Dry-Bulb Temperature {C}
    10.7,                    !- Daily Dry-Bulb Temperature Range {deltaC}
    ,                        !- Dry-Bulb Temperature Range Modifier Type
    ,                        !- Dry-Bulb Temperature Range Modifier Day Schedule Name
    Wetbulb,                 !- Humidity Condition Type
    25.5,                    !- Wetbulb or DewPoint at Maximum Dry-Bulb {C}
    ,                        !- Humidity Condition Day Schedule Name
    ,                        !- Humidity Ratio at Maximum Dry-Bulb {kgWater/kgDryAir}
    ,                        !- Enthalpy at Maximum Dry-Bulb {J/kg}
    ,                        !- Daily Wet-Bulb Temperature Range {deltaC}
    99063.,                  !- Barometric Pressure {Pa}
    5.3,                     !- Wind Speed {m/s}
    230,                     !- Wind Direction {deg}
    No,                      !- Rain Indicator
    No,                      !- Snow Indicator
    No,                      !- Daylight Saving Time Indicator
    ASHRAEClearSky,          !- Solar Model Indicator
    ,                        !- Beam Solar Day Schedule Name
    ,                        !- Diffuse Solar Day Schedule Name
    ,                        !- ASHRAE Clear Sky Optical Depth for Beam Irradiance (taub) {dimensionless}
    ,                        !- ASHRAE Clear Sky Optical Depth for Diffuse Irradiance (taud) {dimensionless}
    1.00;                    !- Sky Clearness

  Site:WaterMainsTemperature,
    CORRELATION,             !- Calculation Method
    ,                        !- Temperature Schedule Name
    9.69,                    !- Annual Average Outdoor Air Temperature {C}
    28.10;                   !- Maximum Difference In Monthly Average Outdoor Air Temperatures {deltaC}

  Site:GroundTemperature:BuildingSurface,19.527,19.502,19.536,19.598,20.002,21.640,22.225,22.375,21.449,20.121,19.802,19.633;

! ***OPAQUE CONSTRUCTIONS AND MATERIALS***
! Exterior Walls

  Construction,
    Mass Non-res Ext Wall,   !- Name
    1IN Stucco,              !- Outside Layer
    8IN Concrete HW,         !- Layer 2
    Mass NonRes Wall Insulation,  !- Layer 3
    1/2IN Gypsum;            !- Layer 4

  Material,
    Mass NonRes Wall Insulation,  !- Name
    MediumRough,             !- Roughness
    0.0495494599433393,      !- Thickness {m}
    0.049,                   !- Conductivity {W/m-K}
    265.0000,                !- Density {kg/m3}
    836.8000,                !- Specific Heat {J/kg-K}
    0.9000,                  !- Thermal Absorptance
    0.7000,                  !- Solar Absorptance
    0.7000;                  !- Visible Absorptance

! Roof

  Construction,
    IEAD Non-res Roof,       !- Name
    Roof Membrane,           !- Outside Layer
    IEAD NonRes Roof Insulation,  !- Layer 2
    Metal Decking;           !- Layer 3

  Material,
    IEAD NonRes Roof Insulation,  !- Name
    MediumRough,             !- Roughness
    0.127338688569477,       !- Thickness {m}
    0.049,                   !- Conductivity {W/m-K}
    265.0000,                !- Density {kg/m3}
    836.8000,                !- Specific Heat {J/kg-K}
    0.9000,                  !- Thermal Absorptance
    0.7000,                  !- Solar Absorptance
    0.7000;                  !- Visible Absorptance

! Slab on grade, unheated

  Construction,
    ext-slab,                !- Name
    HW CONCRETE;             !- Outside Layer

! Interior Walls

  Construction,
    int-walls,               !- Name
    1/2IN Gypsum,            !- Outside Layer
    1/2IN Gypsum;            !- Layer 2

! Interior Floors

  Construction,
    INT-FLOOR-TOPSIDE,       !- Name
    MAT-CC05 4 HW CONCRETE,  !- Outside Layer
    CP02 CARPET PAD;         !- Layer 2

  Construction,
    INT-FLOOR-UNDERSIDE,     !- Name
    CP02 CARPET PAD,         !- Outside Layer
    MAT-CC05 4 HW CONCRETE;  !- Layer 2

  Construction,
    Underground Wall Non-res,!- Name
    8IN Concrete HW,         !- Outside Layer
    UGWall NonRes Insulation;!- Layer 2

  Material,
    UGWall NonRes Insulation,!- Name
    MediumRough,             !- Roughness
    0.0001,                  !- Thickness {m}
    0.049,                   !- Conductivity {W/m-K}
    265.0000,                !- Density {kg/m3}
    836.8000,                !- Specific Heat {J/kg-K}
    0.9000,                  !- Thermal Absorptance
    0.7000,                  !- Solar Absorptance
    0.7000;                  !- Visible Absorptance

! ***WINDOW/DOOR CONSTRUCTIONS AND MATERIALS***

  Construction,
    Window Non-res Fixed,    !- Name
    NonRes Fixed Assembly Window;  !- Outside Layer

  WindowMaterial:SimpleGlazingSystem,
    NonRes Fixed Assembly Window,  !- Name
    3.23646,                 !- U-Factor {W/m2-K}
    0.39;                    !- Solar Heat Gain Coefficient

  Construction,
    Window Res Fixed,        !- Name
    Res Fixed Assembly Window;  !- Outside Layer

  WindowMaterial:SimpleGlazingSystem,
    Res Fixed Assembly Window,  !- Name
    3.23646,                 !- U-Factor {W/m2-K}
    0.39;                    !- Solar Heat Gain Coefficient

! ***COMMON CONSTRUCTIONS AND MATERIALS***

  Construction,
    AIR-WALL,                !- Name
    MAT-AIR-WALL;            !- Outside Layer

  Construction,
    InteriorFurnishings,     !- Name
    Std Wood 6inch;          !- Outside Layer

  Material,
    Std Wood 6inch,          !- Name
    MediumSmooth,            !- Roughness
    0.15,                    !- Thickness {m}
    0.12,                    !- Conductivity {W/m-K}
    540.0000,                !- Density {kg/m3}
    1210,                    !- Specific Heat {J/kg-K}
    0.9000000,               !- Thermal Absorptance
    0.7000000,               !- Solar Absorptance
    0.7000000;               !- Visible Absorptance

  Material,
    Wood Siding,             !- Name
    MediumSmooth,            !- Roughness
    0.0100,                  !- Thickness {m}
    0.1100,                  !- Conductivity {W/m-K}
    544.6200,                !- Density {kg/m3}
    1210.0000,               !- Specific Heat {J/kg-K}
    0.9000,                  !- Thermal Absorptance
    0.7800,                  !- Solar Absorptance
    0.7800;                  !- Visible Absorptance

  Material,
    1/2IN Gypsum,            !- Name
    Smooth,                  !- Roughness
    0.0127,                  !- Thickness {m}
    0.1600,                  !- Conductivity {W/m-K}
    784.9000,                !- Density {kg/m3}
    830.0000,                !- Specific Heat {J/kg-K}
    0.9000,                  !- Thermal Absorptance
    0.9200,                  !- Solar Absorptance
    0.9200;                  !- Visible Absorptance

  Material,
    1IN Stucco,              !- Name
    Smooth,                  !- Roughness
    0.0253,                  !- Thickness {m}
    0.6918,                  !- Conductivity {W/m-K}
    1858.0000,               !- Density {kg/m3}
    837.0000,                !- Specific Heat {J/kg-K}
    0.9000,                  !- Thermal Absorptance
    0.9200,                  !- Solar Absorptance
    0.9200;                  !- Visible Absorptance

  Material,
    8IN CONCRETE HW,         !- Name
    Rough,                   !- Roughness
    0.2032,                  !- Thickness {m}
    1.3110,                  !- Conductivity {W/m-K}
    2240.0000,               !- Density {kg/m3}
    836.8000,                !- Specific Heat {J/kg-K}
    0.9000,                  !- Thermal Absorptance
    0.7000,                  !- Solar Absorptance
    0.7000;                  !- Visible Absorptance

  Material,
    Metal Siding,            !- Name
    Smooth,                  !- Roughness
    0.0015,                  !- Thickness {m}
    44.9600,                 !- Conductivity {W/m-K}
    7688.8600,               !- Density {kg/m3}
    410.0000,                !- Specific Heat {J/kg-K}
    0.9000,                  !- Thermal Absorptance
    0.2000,                  !- Solar Absorptance
    0.2000;                  !- Visible Absorptance

  Material,
    HW CONCRETE,             !- Name
    Rough,                   !- Roughness
    0.1016,                  !- Thickness {m}
    1.3110,                  !- Conductivity {W/m-K}
    2240.0000,               !- Density {kg/m3}
    836.8000,                !- Specific Heat {J/kg-K}
    0.9000,                  !- Thermal Absorptance
    0.7000,                  !- Solar Absorptance
    0.7000;                  !- Visible Absorptance

  Material:NoMass,
    CP02 CARPET PAD,         !- Name
    VeryRough,               !- Roughness
    0.2165,                  !- Thermal Resistance {m2-K/W}
    0.9000,                  !- Thermal Absorptance
    0.7000,                  !- Solar Absorptance
    0.8000;                  !- Visible Absorptance

  Material,
    Roof Membrane,           !- Name
    VeryRough,               !- Roughness
    0.0095,                  !- Thickness {m}
    0.1600,                  !- Conductivity {W/m-K}
    1121.2900,               !- Density {kg/m3}
    1460.0000,               !- Specific Heat {J/kg-K}
    0.9000,                  !- Thermal Absorptance
    0.7000,                  !- Solar Absorptance
    0.7000;                  !- Visible Absorptance

  Material,
    Metal Decking,           !- Name
    MediumSmooth,            !- Roughness
    0.0015,                  !- Thickness {m}
    45.0060,                 !- Conductivity {W/m-K}
    7680.0000,               !- Density {kg/m3}
    418.4000,                !- Specific Heat {J/kg-K}
    0.9000,                  !- Thermal Absorptance
    0.7000,                  !- Solar Absorptance
    0.3000;                  !- Visible Absorptance

  Material,
    Metal Roofing,           !- Name
    MediumSmooth,            !- Roughness
    0.0015,                  !- Thickness {m}
    45.0060,                 !- Conductivity {W/m-K}
    7680.0000,               !- Density {kg/m3}
    418.4000,                !- Specific Heat {J/kg-K}
    0.9000,                  !- Thermal Absorptance
    0.7000,                  !- Solar Absorptance
    0.3000;                  !- Visible Absorptance

  Material,
    MAT-CC05 4 HW CONCRETE,  !- Name
    Rough,                   !- Roughness
    0.1016,                  !- Thickness {m}
    1.3110,                  !- Conductivity {W/m-K}
    2240.0000,               !- Density {kg/m3}
    836.8000,                !- Specific Heat {J/kg-K}
    0.9000,                  !- Thermal Absorptance
    0.7000,                  !- Solar Absorptance
    0.7000;                  !- Visible Absorptance

! Acoustic tile for drop ceiling

  Material,
    Std AC02,                !- Name
    MediumSmooth,            !- Roughness
    1.2700000E-02,           !- Thickness {m}
    5.7000000E-02,           !- Conductivity {W/m-K}
    288.0000,                !- Density {kg/m3}
    1339.000,                !- Specific Heat {J/kg-K}
    0.9000000,               !- Thermal Absorptance
    0.7000000,               !- Solar Absorptance
    0.2000000;               !- Visible Absorptance

  Material:NoMass,
    MAT-AIR-WALL,            !- Name
    Rough,                   !- Roughness
    0.2079491,               !- Thermal Resistance {m2-K/W}
    0.9,                     !- Thermal Absorptance
    0.7;                     !- Solar Absorptance

! ZONE LIST:
! Basement
! Corridor_Flr_1
! Corridor_Flr_2
! Corridor_Flr_5
! Corridor_NW_Flr_3
! Corridor_NW_Flr_4
! Corridor_SE_Flr_3
! Corridor_SE_Flr_4
! Dining_Flr_5
! ER_Exam1_Mult4_Flr_1
! ER_Exam3_Mult4_Flr_1
! ER_NurseStn_Lobby_Flr_1
! ER_Trauma1_Flr_1
! ER_Trauma2_Flr_1
! ER_Triage_Mult4_Flr_1
! ICU_Flr_2
! ICU_NurseStn_Lobby_Flr_2
! IC_PatRoom1_Mult5_Flr_2
! IC_PatRoom2_Flr_2
! IC_PatRoom3_Mult6_Flr_2
! Kitchen_Flr_5
! Lab_Flr_3
! Lab_Flr_4
! Lobby_Records_Flr_1
! NurseStn_Lobby_Flr_3
! NurseStn_Lobby_Flr_4
! NurseStn_Lobby_Flr_5
! OR1_Flr_2
! OR2_Mult5_Flr_2
! OR3_Flr_2
! OR4_Flr_2
! OR_NurseStn_Lobby_Flr_2
! Office1_Flr_5
! Office1_Mult4_Flr_1
! Office2_Mult5_Flr_5
! Office3_Flr_5
! Office4_Mult6_Flr_5
! PatRoom1_Mult10_Flr_3
! PatRoom1_Mult10_Flr_4
! PatRoom2_Flr_3
! PatRoom2_Flr_4
! PatRoom3_Mult10_Flr_3
! PatRoom3_Mult10_Flr_4
! PatRoom4_Flr_3
! PatRoom4_Flr_4
! PatRoom5_Mult10_Flr_3
! PatRoom5_Mult10_Flr_4
! PatRoom6_Flr_3
! PatRoom6_Flr_4
! PatRoom7_Mult10_Flr_3
! PatRoom7_Mult10_Flr_4
! PatRoom8_Flr_3
! PatRoom8_Flr_4
! PhysTherapy_Flr_3
! Radiology_Flr_4
! ***ZONES***

  Zone,
    Basement,                !- Name
    0.0000,                  !- Direction of Relative North {deg}
    0.0000,                  !- X Origin {m}
    0.0000,                  !- Y Origin {m}
    0.0000,                  !- Z Origin {m}
    1,                       !- Type
    1,                       !- Multiplier
    ,                        !- Ceiling Height {m}
    ,                        !- Volume {m3}
    autocalculate,           !- Floor Area {m2}
    ,                        !- Zone Inside Convection Algorithm
    ,                        !- Zone Outside Convection Algorithm
    Yes;                     !- Part of Total Floor Area

  Zone,
    Corridor_Flr_1,          !- Name
    0.0000,                  !- Direction of Relative North {deg}
    0.0000,                  !- X Origin {m}
    0.0000,                  !- Y Origin {m}
    0.0000,                  !- Z Origin {m}
    1,                       !- Type
    1,                       !- Multiplier
    ,                        !- Ceiling Height {m}
    ,                        !- Volume {m3}
    autocalculate,           !- Floor Area {m2}
    ,                        !- Zone Inside Convection Algorithm
    ,                        !- Zone Outside Convection Algorithm
    Yes;                     !- Part of Total Floor Area

  Zone,
    Corridor_Flr_2,          !- Name
    0.0000,                  !- Direction of Relative North {deg}
    0.0000,                  !- X Origin {m}
    0.0000,                  !- Y Origin {m}
    0.0000,                  !- Z Origin {m}
    1,                       !- Type
    1,                       !- Multiplier
    ,                        !- Ceiling Height {m}
    ,                        !- Volume {m3}
    autocalculate,           !- Floor Area {m2}
    ,                        !- Zone Inside Convection Algorithm
    ,                        !- Zone Outside Convection Algorithm
    Yes;                     !- Part of Total Floor Area

  Zone,
    Corridor_Flr_5,          !- Name
    0.0000,                  !- Direction of Relative North {deg}
    0.0000,                  !- X Origin {m}
    0.0000,                  !- Y Origin {m}
    0.0000,                  !- Z Origin {m}
    1,                       !- Type
    1,                       !- Multiplier
    ,                        !- Ceiling Height {m}
    ,                        !- Volume {m3}
    autocalculate,           !- Floor Area {m2}
    ,                        !- Zone Inside Convection Algorithm
    ,                        !- Zone Outside Convection Algorithm
    Yes;                     !- Part of Total Floor Area

  Zone,
    Corridor_NW_Flr_3,       !- Name
    0.0000,                  !- Direction of Relative North {deg}
    0.0000,                  !- X Origin {m}
    0.0000,                  !- Y Origin {m}
    0.0000,                  !- Z Origin {m}
    1,                       !- Type
    1,                       !- Multiplier
    ,                        !- Ceiling Height {m}
    ,                        !- Volume {m3}
    autocalculate,           !- Floor Area {m2}
    ,                        !- Zone Inside Convection Algorithm
    ,                        !- Zone Outside Convection Algorithm
    Yes;                     !- Part of Total Floor Area

  Zone,
    Corridor_NW_Flr_4,       !- Name
    0.0000,                  !- Direction of Relative North {deg}
    0.0000,                  !- X Origin {m}
    0.0000,                  !- Y Origin {m}