! RetailPackagedTESCoil.idf
!
!
! Description:  Single story, Five zone building.
!               Demonstrates thermal storage cooling coils. Four different types.  Model derived from DOE reference model for
!               stand alone retail.
!
! Form:         Area = 2,294 m2 (24,692 ft2); Number of Stories = 1; Shape = rectangle, Aspect ratio = 1.3
! Envelope:     Envelope thermal properties vary with climate according to ASHRAE Standard 90.1-2004.
!               Opaque constructions: mass walls; built-up flat roof (insulation above deck); slab-on-grade floor
!               Windows: window-to-wall ratio = 7.1%, south wall only (25.4%)
!               Infiltration = 0.4 cfm/ft2 above grade wall area at 0.3 in wc (75 Pa) adjusted to 0.016 in wc (4 Pa).
!                              50% of full value when ventilation system on.
! HVAC:         PSZ-AC, gas furnace; electric unit heater for front entry zone
!               Economizer per 90.1-2004
!
! Int. gains:   W/m2 (W/ft2)    lights           elec plug          gas plug
!               Back            8.6 (0.8)        8.07 (0.75)           0
!               Core Retail     18.29 (1.7)      3.23 (0.3)            0
!               Point of Sale   18.29 (1.7)      21.52 (2.0)           0
!               Front Retail    18.29 (1.7)      3.23 (0.3)            0
!               Entry           11.84 (1.1)      0                     0
!
! Detached Shading:               None
! Daylight:                       None
! Natural Ventilation:            None
! Zonal Equipment:                ZoneHVAC:UnitHeater
! Air Primary Loops:              PSZ-AC
! Plant Loops:                    None
! System Equipment Autosize:      Yes
! Purchased Cooling:              None
! Purchased Heating:              None
! Coils:                          Coil:Cooling:DX:SingleSpeed:ThermalStorage; Coil:Heating:Fuel; Coil:Heating:Electric (unit heaters)
! Pumps:                          None
! Boilers:                        None
! Chillers:                       None
!
! Performance input data for Coil:Cooling:DX:SingleSpeed:ThermalStorage were provided by R. Willis of Ice Energy Technologies, Inc., Windsor, CO.
!
!
! ***GENERAL SIMULATION PARAMETERS***
! Number of Zones: 5

  Version,24.1;

  SimulationControl,
    YES,                     !- Do Zone Sizing Calculation
    YES,                     !- Do System Sizing Calculation
    NO,                      !- Do Plant Sizing Calculation
    YES,                     !- Run Simulation for Sizing Periods
    NO,                      !- Run Simulation for Weather File Run Periods
    No,                      !- Do HVAC Sizing Simulation for Sizing Periods
    1;                       !- Maximum Number of HVAC Sizing Simulation Passes

  Building,
    Ref Bldg Stand-alone Retail New2004_v1.3_5.0,  !- Name
    0.0000,                  !- North Axis {deg}
    City,                    !- Terrain
    0.0400,                  !- Loads Convergence Tolerance Value {W}
    0.2000,                  !- Temperature Convergence Tolerance Value {deltaC}
    FullInteriorAndExterior, !- Solar Distribution
    25,                      !- Maximum Number of Warmup Days
    6;                       !- Minimum Number of Warmup Days

  RunPeriod,
    RunPeriod 1,             !- Name
    1,                       !- Begin Month
    1,                       !- Begin Day of Month
    ,                        !- Begin Year
    12,                      !- End Month
    31,                      !- End Day of Month
    ,                        !- End Year
    Monday,                  !- Day of Week for Start Day
    No,                      !- Use Weather File Holidays and Special Days
    No,                      !- Use Weather File Daylight Saving Period
    No,                      !- Apply Weekend Holiday Rule
    Yes,                     !- Use Weather File Rain Indicators
    Yes;                     !- Use Weather File Snow Indicators

! ***HOLIDAYS & DAYLIGHT SAVINGS***

  RunPeriodControl:DaylightSavingTime,
    2nd Sunday in March,     !- Start Date
    1st Sunday in November;  !- End Date

  RunPeriodControl:SpecialDays,
    New Years Day,           !- Name
    January 1,               !- Start Date
    1,                       !- Duration {days}
    Holiday;                 !- Special Day Type

  RunPeriodControl:SpecialDays,
    Veterans Day,            !- Name
    November 11,             !- Start Date
    1,                       !- Duration {days}
    Holiday;                 !- Special Day Type

  RunPeriodControl:SpecialDays,
    Christmas,               !- Name
    December 25,             !- Start Date
    1,                       !- Duration {days}
    Holiday;                 !- Special Day Type

  RunPeriodControl:SpecialDays,
    Independence Day,        !- Name
    July 4,                  !- Start Date
    1,                       !- Duration {days}
    Holiday;                 !- Special Day Type

  RunPeriodControl:SpecialDays,
    MLK Day,                 !- Name
    3rd Monday in January,   !- Start Date
    1,                       !- Duration {days}
    Holiday;                 !- Special Day Type

  RunPeriodControl:SpecialDays,
    Presidents Day,          !- Name
    3rd Monday in February,  !- Start Date
    1,                       !- Duration {days}
    Holiday;                 !- Special Day Type

  RunPeriodControl:SpecialDays,
    Memorial Day,            !- Name
    Last Monday in May,      !- Start Date
    1,                       !- Duration {days}
    Holiday;                 !- Special Day Type

  RunPeriodControl:SpecialDays,
    Labor Day,               !- Name
    1st Monday in September, !- Start Date
    1,                       !- Duration {days}
    Holiday;                 !- Special Day Type

  RunPeriodControl:SpecialDays,
    Columbus Day,            !- Name
    2nd Monday in October,   !- Start Date
    1,                       !- Duration {days}
    Holiday;                 !- Special Day Type

  RunPeriodControl:SpecialDays,
    Thanksgiving,            !- Name
    4th Thursday in November,!- Start Date
    1,                       !- Duration {days}
    Holiday;                 !- Special Day Type

! ***SCHEDULE TYPES***

  ScheduleTypeLimits,
    Any Number;              !- Name

  ScheduleTypeLimits,
    Fraction,                !- Name
    0.0,                     !- Lower Limit Value
    1.0,                     !- Upper Limit Value
    CONTINUOUS;              !- Numeric Type

  ScheduleTypeLimits,
    Temperature,             !- Name
    -60,                     !- Lower Limit Value
    200,                     !- Upper Limit Value
    CONTINUOUS;              !- Numeric Type

  ScheduleTypeLimits,
    On/Off,                  !- Name
    0,                       !- Lower Limit Value
    1,                       !- Upper Limit Value
    DISCRETE;                !- Numeric Type

  ScheduleTypeLimits,
    Control Type,            !- Name
    0,                       !- Lower Limit Value
    4,                       !- Upper Limit Value
    DISCRETE;                !- Numeric Type

  ScheduleTypeLimits,
    Humidity,                !- Name
    10,                      !- Lower Limit Value
    90,                      !- Upper Limit Value
    CONTINUOUS;              !- Numeric Type

  ScheduleTypeLimits,
    Number;                  !- Name

! ***ALWAYS ON SCHEDULE***

  Schedule:Compact,
    ALWAYS_ON,               !- Name
    On/Off,                  !- Schedule Type Limits Name
    Through: 12/31,          !- Field 1
    For: AllDays,            !- Field 2
    Until: 24:00,1;          !- Field 3

! ***MISC SIMULATION PARAMETERS***

  SurfaceConvectionAlgorithm:Inside,TARP;

  SurfaceConvectionAlgorithm:Outside,DOE-2;

  HeatBalanceAlgorithm,ConductionTransferFunction,200.0000;

  ZoneAirHeatBalanceAlgorithm,
    AnalyticalSolution;      !- Algorithm

  Sizing:Parameters,
    1.2,                     !- Heating Sizing Factor
    1.2,                     !- Cooling Sizing Factor
    6;                       !- Timesteps in Averaging Window

  ConvergenceLimits,
    2,                       !- Minimum System Timestep {minutes}
    25;                      !- Maximum HVAC Iterations

  ShadowCalculation,
    PolygonClipping,         !- Shading Calculation Method
    Periodic,                !- Shading Calculation Update Frequency Method
    7,                       !- Shading Calculation Update Frequency
    15000;                   !- Maximum Figures in Shadow Overlap Calculations

  Timestep,6;

! WeatherFileName=USA_IL_Chicago-OHare_TMY2.epw

  Site:Location,
    USA IL-CHICAGO-OHARE,    !- Name
    41.77,                   !- Latitude {deg}
    -87.75,                  !- Longitude {deg}
    -6.00,                   !- Time Zone {hr}
    190;                     !- Elevation {m}

! CHICAGO_IL_USA Annual Heating 99.6%, MaxDB=-20.6°C

  SizingPeriod:DesignDay,
    CHICAGO Ann Htg 99.6% Condns DB,  !- Name
    1,                       !- Month
    21,                      !- Day of Month
    WinterDesignDay,         !- Day Type
    -20.6,                   !- Maximum Dry-Bulb Temperature {C}
    0.0,                     !- Daily Dry-Bulb Temperature Range {deltaC}
    ,                        !- Dry-Bulb Temperature Range Modifier Type
    ,                        !- Dry-Bulb Temperature Range Modifier Day Schedule Name
    Wetbulb,                 !- Humidity Condition Type
    -20.6,                   !- Wetbulb or DewPoint at Maximum Dry-Bulb {C}
    ,                        !- Humidity Condition Day Schedule Name
    ,                        !- Humidity Ratio at Maximum Dry-Bulb {kgWater/kgDryAir}
    ,                        !- Enthalpy at Maximum Dry-Bulb {J/kg}
    ,                        !- Daily Wet-Bulb Temperature Range {deltaC}
    99063.,                  !- Barometric Pressure {Pa}
    4.9,                     !- Wind Speed {m/s}
    270,                     !- Wind Direction {deg}
    No,                      !- Rain Indicator
    No,                      !- Snow Indicator
    No,                      !- Daylight Saving Time Indicator
    ASHRAEClearSky,          !- Solar Model Indicator
    ,                        !- Beam Solar Day Schedule Name
    ,                        !- Diffuse Solar Day Schedule Name
    ,                        !- ASHRAE Clear Sky Optical Depth for Beam Irradiance (taub) {dimensionless}
    ,                        !- ASHRAE Clear Sky Optical Depth for Diffuse Irradiance (taud) {dimensionless}
    0.00;                    !- Sky Clearness

! CHICAGO_IL_USA Annual Cooling (WB=>MDB) .4%, MDB=31.2°C WB=25.5°C

  SizingPeriod:DesignDay,
    CHICAGO Ann Clg .4% Condns WB=>MDB,  !- Name
    7,                       !- Month
    21,                      !- Day of Month
    SummerDesignDay,         !- Day Type
    31.2,                    !- Maximum Dry-Bulb Temperature {C}
    10.7,                    !- Daily Dry-Bulb Temperature Range {deltaC}
    ,                        !- Dry-Bulb Temperature Range Modifier Type
    ,                        !- Dry-Bulb Temperature Range Modifier Day Schedule Name
    Wetbulb,                 !- Humidity Condition Type
    25.5,                    !- Wetbulb or DewPoint at Maximum Dry-Bulb {C}
    ,                        !- Humidity Condition Day Schedule Name
    ,                        !- Humidity Ratio at Maximum Dry-Bulb {kgWater/kgDryAir}
    ,                        !- Enthalpy at Maximum Dry-Bulb {J/kg}
    ,                        !- Daily Wet-Bulb Temperature Range {deltaC}
    99063.,                  !- Barometric Pressure {Pa}
    5.3,                     !- Wind Speed {m/s}
    230,                     !- Wind Direction {deg}
    No,                      !- Rain Indicator
    No,                      !- Snow Indicator
    No,                      !- Daylight Saving Time Indicator
    ASHRAEClearSky,          !- Solar Model Indicator
    ,                        !- Beam Solar Day Schedule Name
    ,                        !- Diffuse Solar Day Schedule Name
    ,                        !- ASHRAE Clear Sky Optical Depth for Beam Irradiance (taub) {dimensionless}
    ,                        !- ASHRAE Clear Sky Optical Depth for Diffuse Irradiance (taud) {dimensionless}
    1.00;                    !- Sky Clearness

  Site:WaterMainsTemperature,
    CORRELATION,             !- Calculation Method
    ,                        !- Temperature Schedule Name
    9.69,                    !- Annual Average Outdoor Air Temperature {C}
    28.10;                   !- Maximum Difference In Monthly Average Outdoor Air Temperatures {deltaC}

  Site:GroundTemperature:BuildingSurface,19.527,19.502,19.536,19.598,20.002,21.640,22.225,22.375,21.449,20.121,19.802,19.633;

! ***OPAQUE CONSTRUCTIONS AND MATERIALS***
! Exterior Walls

  Construction,
    Mass Non-res Ext Wall,   !- Name
    1IN Stucco,              !- Outside Layer
    8IN CONCRETE HW,         !- Layer 2
    Mass NonRes Wall Insulation,  !- Layer 3
    1/2IN Gypsum;            !- Layer 4

  Material,
    Mass NonRes Wall Insulation,  !- Name
    MediumRough,             !- Roughness
    0.0495494599433393,      !- Thickness {m}
    0.049,                   !- Conductivity {W/m-K}
    265.0000,                !- Density {kg/m3}
    836.8000,                !- Specific Heat {J/kg-K}
    0.9000,                  !- Thermal Absorptance
    0.7000,                  !- Solar Absorptance
    0.7000;                  !- Visible Absorptance

! Roof

  Construction,
    IEAD Non-res Roof,       !- Name
    Roof Membrane,           !- Outside Layer
    IEAD NonRes Roof Insulation,  !- Layer 2
    Metal Decking;           !- Layer 3

  Material,
    IEAD NonRes Roof Insulation,  !- Name
    MediumRough,             !- Roughness
    0.127338688569477,       !- Thickness {m}
    0.049,                   !- Conductivity {W/m-K}
    265.0000,                !- Density {kg/m3}
    836.8000,                !- Specific Heat {J/kg-K}
    0.9000,                  !- Thermal Absorptance
    0.7000,                  !- Solar Absorptance
    0.7000;                  !- Visible Absorptance

! Slab on grade, unheated

  Construction,
    ext-slab,                !- Name
    HW CONCRETE;             !- Outside Layer

! Interior Walls

  Construction,
    int-walls,               !- Name
    1/2IN Gypsum,            !- Outside Layer
    1/2IN Gypsum;            !- Layer 2

! ***WINDOW/DOOR CONSTRUCTIONS AND MATERIALS***

  Construction,
    Window Non-res Fixed,    !- Name
    NonRes Fixed Assembly Window;  !- Outside Layer

  WindowMaterial:SimpleGlazingSystem,
    NonRes Fixed Assembly Window,  !- Name
    3.23646,                 !- U-Factor {W/m2-K}
    0.39,                    !- Solar Heat Gain Coefficient
    ;                        !- Visible Transmittance

! ***COMMON CONSTRUCTIONS AND MATERIALS***

  Construction,
    InteriorFurnishings,     !- Name
    Std Wood 6inch;          !- Outside Layer

  Material,
    Std Wood 6inch,          !- Name
    MediumSmooth,            !- Roughness
    0.15,                    !- Thickness {m}
    0.12,                    !- Conductivity {W/m-K}
    540.0000,                !- Density {kg/m3}
    1210,                    !- Specific Heat {J/kg-K}
    0.9000000,               !- Thermal Absorptance
    0.7000000,               !- Solar Absorptance
    0.7000000;               !- Visible Absorptance

  Material,
    Wood Siding,             !- Name
    MediumSmooth,            !- Roughness
    0.0100,                  !- Thickness {m}
    0.1100,                  !- Conductivity {W/m-K}
    544.6200,                !- Density {kg/m3}
    1210.0000,               !- Specific Heat {J/kg-K}
    0.9000,                  !- Thermal Absorptance
    0.7800,                  !- Solar Absorptance
    0.7800;                  !- Visible Absorptance

  Material,
    1/2IN Gypsum,            !- Name
    Smooth,                  !- Roughness
    0.0127,                  !- Thickness {m}
    0.1600,                  !- Conductivity {W/m-K}
    784.9000,                !- Density {kg/m3}
    830.0000,                !- Specific Heat {J/kg-K}
    0.9000,                  !- Thermal Absorptance
    0.9200,                  !- Solar Absorptance
    0.9200;                  !- Visible Absorptance

  Material,
    1IN Stucco,              !- Name
    Smooth,                  !- Roughness
    0.0253,                  !- Thickness {m}
    0.6918,                  !- Conductivity {W/m-K}
    1858.0000,               !- Density {kg/m3}
    837.0000,                !- Specific Heat {J/kg-K}
    0.9000,                  !- Thermal Absorptance
    0.9200,                  !- Solar Absorptance
    0.9200;                  !- Visible Absorptance

  Material,
    8IN CONCRETE HW,         !- Name
    Rough,                   !- Roughness
    0.2032,                  !- Thickness {m}
    1.3110,                  !- Conductivity {W/m-K}
    2240.0000,               !- Density {kg/m3}
    836.8000,                !- Specific Heat {J/kg-K}
    0.9000,                  !- Thermal Absorptance
    0.7000,                  !- Solar Absorptance
    0.7000;                  !- Visible Absorptance

  Material,
    Metal Siding,            !- Name
    Smooth,                  !- Roughness
    0.0015,                  !- Thickness {m}
    44.9600,                 !- Conductivity {W/m-K}
    7688.8600,               !- Density {kg/m3}
    410.0000,                !- Specific Heat {J/kg-K}
    0.9000,                  !- Thermal Absorptance
    0.2000,                  !- Solar Absorptance
    0.2000;                  !- Visible Absorptance

  Material,
    HW CONCRETE,             !- Name
    Rough,                   !- Roughness
    0.1016,                  !- Thickness {m}
    1.3110,                  !- Conductivity {W/m-K}
    2240.0000,               !- Density {kg/m3}
    836.8000,                !- Specific Heat {J/kg-K}
    0.9000,                  !- Thermal Absorptance
    0.7000,                  !- Solar Absorptance
    0.7000;                  !- Visible Absorptance

  Material:NoMass,
    CP02 CARPET PAD,         !- Name
    VeryRough,               !- Roughness
    0.2165,                  !- Thermal Resistance {m2-K/W}
    0.9000,                  !- Thermal Absorptance
    0.7000,                  !- Solar Absorptance
    0.8000;                  !- Visible Absorptance

  Material,
    Roof Membrane,           !- Name
    VeryRough,               !- Roughness
    0.0095,                  !- Thickness {m}
    0.1600,                  !- Conductivity {W/m-K}
    1121.2900,               !- Density {kg/m3}
    1460.0000,               !- Specific Heat {J/kg-K}
    0.9000,                  !- Thermal Absorptance
    0.7000,                  !- Solar Absorptance
    0.7000;                  !- Visible Absorptance

  Material,
    Metal Decking,           !- Name
    MediumSmooth,            !- Roughness
    0.0015,                  !- Thickness {m}
    45.0060,                 !- Conductivity {W/m-K}
    7680.0000,               !- Density {kg/m3}
    418.4000,                !- Specific Heat {J/kg-K}
    0.9000,                  !- Thermal Absorptance
    0.7000,                  !- Solar Absorptance
    0.3000;                  !- Visible Absorptance

  Material,
    Metal Roofing,           !- Name
    MediumSmooth,            !- Roughness
    0.0015,                  !- Thickness {m}
    45.0060,                 !- Conductivity {W/m-K}
    7680.0000,               !- Density {kg/m3}
    418.4000,                !- Specific Heat {J/kg-K}
    0.9000,                  !- Thermal Absorptance
    0.7000,                  !- Solar Absorptance
    0.3000;                  !- Visible Absorptance

  Material,
    MAT-CC05 4 HW CONCRETE,  !- Name
    Rough,                   !- Roughness
    0.1016,                  !- Thickness {m}
    1.3110,                  !- Conductivity {W/m-K}
    2240.0000,               !- Density {kg/m3}
    836.8000,                !- Specific Heat {J/kg-K}
    0.9000,                  !- Thermal Absorptance
    0.7000,                  !- Solar Absorptance
    0.7000;                  !- Visible Absorptance

! Acoustic tile for drop ceiling

  Material,
    Std AC02,                !- Name
    MediumSmooth,            !- Roughness
    1.2700000E-02,           !- Thickness {m}
    5.7000000E-02,           !- Conductivity {W/m-K}
    288.0000,                !- Density {kg/m3}
    1339.000,                !- Specific Heat {J/kg-K}
    0.9000000,               !- Thermal Absorptance
    0.7000000,               !- Solar Absorptance
    0.2000000;               !- Visible Absorptance

  Material:NoMass,
    MAT-AIR-WALL,            !- Name
    Rough,                   !- Roughness
    0.2079491,               !- Thermal Resistance {m2-K/W}
    0.9,                     !- Thermal Absorptance
    0.7;                     !- Solar Absorptance

! ZONE LIST:
! Back_Space
! Core_Retail
! Front_Entry
! Front_Retail
! Point_Of_Sale
! ***ZONES***

  Zone,
    Back_Space,              !- Name
    0.0000,                  !- Direction of Relative North {deg}
    0.0000,                  !- X Origin {m}
    35.2700,                 !- Y Origin {m}
    0.0000,                  !- Z Origin {m}
    1,                       !- Type
    1,                       !- Multiplier
    ,                        !- Ceiling Height {m}
    ,                        !- Volume {m3}
    autocalculate,           !- Floor Area {m2}
    ,                        !- Zone Inside Convection Algorithm
    ,                        !- Zone Outside Convection Algorithm
    Yes;                     !- Part of Total Floor Area

  Zone,
    Core_Retail,             !- Name
    0.0000,                  !- Direction of Relative North {deg}
    0.0000,                  !- X Origin {m}
    6.0000,                  !- Y Origin {m}
    0.0000,                  !- Z Origin {m}
    1,                       !- Type
    1,                       !- Multiplier
    ,                        !- Ceiling Height {m}
    ,                        !- Volume {m3}
    autocalculate,           !- Floor Area {m2}
    ,                        !- Zone Inside Convection Algorithm
    ,                        !- Zone Outside Convection Algorithm
    Yes;                     !- Part of Total Floor Area

  Zone,
    Front_Entry,             !- Name
    0.0000,                  !- Direction of Relative North {deg}
    25.1350,                 !- X Origin {m}
    0.0000,                  !- Y Origin {m}
    0.0000,                  !- Z Origin {m}
    1,                       !- Type
    1,                       !- Multiplier
    ,                        !- Ceiling Height {m}
    ,                        !- Volume {m3}
    autocalculate,           !- Floor Area {m2}
    ,                        !- Zone Inside Convection Algorithm
    ,                        !- Zone Outside Convection Algorithm
    Yes;                     !- Part of Total Floor Area

  Zone,
    Front_Retail,            !- Name
    0.0000,                  !- Direction of Relative North {deg}
    29.1350,                 !- X Origin {m}
    0.0000,                  !- Y Origin {m}
    0.0000,                  !- Z Origin {m}
    1,                       !- Type
    1,                       !- Multiplier
    ,                        !- Ceiling Height {m}
    ,                        !- Volume {m3}
    autocalculate,           !- Floor Area {m2}
    ,                        !- Zone Inside Convection Algorithm
    ,                        !- Zone Outside Convection Algorithm
    Yes;                     !- Part of Total Floor Area

  Zone,
    Point_Of_Sale,           !- Name
    0.0000,                  !- Direction of Relative North {deg}
    0.0000,                  !- X Origin {m}
    0.0000,                  !- Y Origin {m}
    0.0000,                  !- Z Origin {m}
    1,                       !- Type
    1,                       !- Multiplier
    ,                        !- Ceiling Height {m}
    ,                        !- Volume {m3}
    autocalculate,           !- Floor Area {m2}
    ,                        !- Zone Inside Convection Algorithm
    ,                        !- Zone Outside Convection Algorithm
    Yes;                     !- Part of Total Floor Area

! ***WALLS***

  BuildingSurface:Detailed,
    Back_Space_Floor,        !- Name
    Floor,                   !- Surface Type
    ext-slab,                !- Construction Name
    Back_Space,              !- Zone Name
    ,                        !- Space Name
    Ground,                  !- Outside Boundary Condition
    ,                        !- Outside Boundary Condition Object
    NoSun,                   !- Sun Exposure
    NoWind,                  !- Wind Exposure
    AutoCalculate,           !- View Factor to Ground
    4,                       !- Number of Vertices
    54.2700,0.0000,0.0000,  !- X,Y,Z ==> Vertex 1 {m}
    0.0000,0.0000,0.0000,  !- X,Y,Z ==> Vertex 2 {m}
    0.0000,7.0000,0.0000,  !- X,Y,Z ==> Vertex 3 {m}
    54.2700,7.0000,0.0000;  !- X,Y,Z ==> Vertex 4 {m}

  BuildingSurface:Detailed,
    Back_Space_Roof,         !- Name
    Roof,                    !- Surface Type
    IEAD Non-res Roof,       !- Construction Name
    Back_Space,              !- Zone Name
    ,                        !- Space Name
    Outdoors,                !- Outside Boundary Condition
    ,                        !- Outside Boundary Condition Object
    SunExposed,              !- Sun Exposure
    WindExposed,             !- Wind Exposure
    AutoCalculate,           !- View Factor to Ground
    4,                       !- Number of Vertices
    0.0000,0.0000,6.0960,  !- X,Y,Z ==> Vertex 1 {m}
    54.2700,0.0000,6.0960,  !- X,Y,Z ==> Vertex 2 {m}
    54.2700,7.0000,6.0960,  !- X,Y,Z ==> Vertex 3 {m}
    0.0000,7.0000,6.0960;  !- X,Y,Z ==> Vertex 4 {m}

  BuildingSurface:Detailed,
    Back_Space_Wall_East,    !- Name
    Wall,                    !- Surface Type
    Mass Non-res Ext Wall,   !- Construction Name
    Back_Space,              !- Zone Name
    ,                        !- Space Name
    Outdoors,                !- Outside Boundary Condition
    ,                        !- Outside Boundary Condition Object
    SunExposed,              !- Sun Exposure
    WindExposed,             !- Wind Exposure
    AutoCalculate,           !- View Factor to Ground
    4,                       !- Number of Vertices
    54.2700,0.0000,6.0960,  !- X,Y,Z ==> Vertex 1 {m}
    54.2700,0.0000,0.0000,  !- X,Y,Z ==> Vertex 2 {m}
    54.2700,7.0000,0.0000,  !- X,Y,Z ==> Vertex 3 {m}
    54.2700,7.0000,6.0960;  !- X,Y,Z ==> Vertex 4 {m}

  BuildingSurface:Detailed,
    Back_Space_Wall_North,   !- Name
    Wall,                    !- Surface Type
    Mass Non-res Ext Wall,   !- Construction Name
    Back_Space,              !- Zone Name
    ,                        !- Space Name
    Outdoors,                !- Outside Boundary Condition
    ,                        !- Outside Boundary Condition Object
    SunExposed,              !- Sun Exposure
    WindExposed,             !- Wind Exposure
    AutoCalculate,           !- View Factor to Ground
    4,                       !- Number of Vertices
    54.2700,7.0000,6.0960,  !- X,Y,Z ==> Vertex 1 {m}
    54.2700,7.0000,0.0000,  !- X,Y,Z ==> Vertex 2 {m}
    0.0000,7.0000,0.0000,  !- X,Y,Z ==> Vertex 3 {m}
    0.0000,7.0000,6.0960;  !- X,Y,Z ==> Vertex 4 {m}

  BuildingSurface:Detailed,
    Back_Space_Wall_South,   !- Name
    Wall,                    !- Surface Type
    int-walls,               !- Construction Name
    Back_Space,              !- Zone Name
    ,                        !- Space Name
    Surface,                 !- Outside Boundary Condition
    Core_Retail_Wall_North,  !- Outside Boundary Condition Object
    NoSun,                   !- Sun Exposure
    NoWind,                  !- Wind Exposure
    AutoCalculate,           !- View Factor to Ground
    4,                       !- Number of Vertices
    0.0000,0.0000,6.0960,  !- X,Y,Z ==> Vertex 1 {m}
    0.0000,0.0000,0.0000,  !- X,Y,Z ==> Vertex 2 {m}
    54.2700,0.0000,0.0000,  !- X,Y,Z ==> Vertex 3 {m}
    54.2700,0.0000,6.0960;  !- X,Y,Z ==> Vertex 4 {m}

  BuildingSurface:Detailed,
    Back_Space_Wall_West,    !- Name
    Wall,                    !- Surface Type
    Mass Non-res Ext Wall,   !- Construction Name
    Back_Space,              !- Zone Name
    ,                        !- Space Name
    Outdoors,                !- Outside Boundary Condition
    ,                        !- Outside Boundary Condition Object
    SunExposed,              !- Sun Exposure
    WindExposed,             !- Wind Exposure
    AutoCalculate,           !- View Factor to Ground
    4,                       !- Number of Vertices
    0.0000,7.0000,6.0960,  !- X,Y,Z ==> Vertex 1 {m}
    0.0000,7.0000,0.0000,  !- X,Y,Z ==> Vertex 2 {m}
    0.0000,0.0000,0.0000,  !- X,Y,Z ==> Vertex 3 {m}
    0.0000,0.0000,6.0960;  !- X,Y,Z ==> Vertex 4 {m}

  BuildingSurface:Detailed,
    Core_Retail_Floor,       !- Name
    Floor,                   !- Surface Type
    ext-slab,                !- Construction Name
    Core_Retail,             !- Zone Name
    ,                        !- Space Name
    Ground,                  !- Outside Boundary Condition
    ,                        !- Outside Boundary Condition Object
    NoSun,                   !- Sun Exposure
    NoWind,                  !- Wind Exposure
    AutoCalculate,           !- View Factor to Ground
    8,                       !- Number of Vertices
    25.1350,-3.0000,0.0000,  !- X,Y,Z ==> Vertex 1 {m}
    25.1350,0.0000,0.0000,  !- X,Y,Z ==> Vertex 2 {m}
    0.0000,0.0000,0.0000,  !- X,Y,Z ==> Vertex 3 {m}
    0.0000,29.2700,0.0000,  !- X,Y,Z ==> Vertex 4 {m}
    54.2700,29.2700,0.0000,  !- X,Y,Z ==> Vertex 5 {m}
    54.2700,0.0000,0.0000,  !- X,Y,Z ==> Vertex 6 {m}