
  Schedule:Constant,
    Constant Schedule 1 No Limits,
    ,
    3.14;

  Schedule:Constant,
    Constant Schedule With Limits Not Bounded,
    Limits 0-10 Discrete,
    5.6;

  Schedule:Compact,
    Compact Sched 1,
    ,
    Through: 12/31,
    For: AllDays,
    Until: 24:00,
    0.2;

  Schedule:Compact,
    Quarterly Compact Sched 1,
    ,
    Through: 3/31,
    For: AllDays,
    Until: 24:00,
    0.1,
    Through: 6/30,
    For: AllDays,
    Until: 24:00,
    0.2,
    Through: 09/30,
    For: AllDays,
    Until: 24:00,
    0.3,
    Through: 12/31,
    For: AllDays,
    Until: 24:00,
    0.4;

  Schedule:Compact,
    Day Varying Compact Sched 1,
    ,
    Through: 12/31,
    For: Sundays, Until: 24:00, 0.1,
    For: Mondays, Until: 24:00, 0.2,
    For: Tuesdays, Until: 24:00, 0.3,
    For: Wednesdays, Until: 24:00, 0.4,
    For: Thursdays, Until: 24:00, 0.5,
    For: Fridays, Until: 24:00, 0.6,
    For: Saturdays, Until: 24:00, 0.7,
    For: Holidays, Until: 24:00, 0.8,
    For: SummerDesignDay, Until: 24:00, 0.9,
    For: WinterDesignDay, Until: 24:00, 1.0,
    For: AllOtherDays, Until: 24:00, 2.0;

! Enabling this should cause a severe out of bounds error
!  Schedule:Constant,
!    Constant Schedule With Limits Bounded,
!    Limits 0-10 Discrete,
!    11;

  ScheduleTypeLimits,
    Limits 0-10 Discrete,
    0,
    10,
    Discrete;

!  Schedule:File,
!    File-based Schedule,     !- Name
!    Any Number,              !- Schedule Type Limits Name
!    /tmp/testfile.csv,             !- File Name
!    3,                       !- Column Number
!    1,                       !- Rows to Skip at Top
!    ,                        !- Number of Hours of Data
!    ,                        !- Column Separator
!    ,                        !- Interpolate to Timestep
!    60;                      !- Minutes per Item

  Version,9.2;

  Building,
    None,                    !- Name
    0.0000000E+00,           !- North Axis {deg}
    Suburbs,                 !- Terrain
    0.04,                    !- Loads Convergence Tolerance Value
    0.40,                    !- Temperature Convergence Tolerance Value {deltaC}
    FullInteriorAndExterior, !- Solar Distribution
    25,                      !- Maximum Number of Warmup Days
    6;                       !- Minimum Number of Warmup Days

  GlobalGeometryRules,
    UpperLeftCorner,         !- Starting Vertex Position
    CounterClockWise,        !- Vertex Entry Direction
    World;                   !- Coordinate System

  Site:Location,
    DENVER_STAPLETON_CO_USA_WMO_724690,  !- Name
    39.77,                   !- Latitude {deg}
    -104.87,                 !- Longitude {deg}
    -7.00,                   !- Time Zone {hr}
    1611.00;                 !- Elevation {m}

  SizingPeriod:DesignDay,
    DENVER_STAPLETON Ann Htg 99.6% Condns DB,  !- Name
    12,                      !- Month
    21,                      !- Day of Month
    WinterDesignDay,         !- Day Type
    -20,                     !- Maximum Dry-Bulb Temperature {C}
    0.0,                     !- Daily Dry-Bulb Temperature Range {deltaC}
    ,                        !- Dry-Bulb Temperature Range Modifier Type
    ,                        !- Dry-Bulb Temperature Range Modifier Day Schedule Name
    Wetbulb,                 !- Humidity Condition Type
    -20,                     !- Wetbulb or DewPoint at Maximum Dry-Bulb {C}
    ,                        !- Humidity Condition Day Schedule Name
    ,                        !- Humidity Ratio at Maximum Dry-Bulb {kgWater/kgDryAir}
    ,                        !- Enthalpy at Maximum Dry-Bulb {J/kg}
    ,                        !- Daily Wet-Bulb Temperature Range {deltaC}
    83411.,                  !- Barometric Pressure {Pa}
    2.3,                     !- Wind Speed {m/s}
    180,                     !- Wind Direction {deg}
    No,                      !- Rain Indicator
    No,                      !- Snow Indicator
    No,                      !- Daylight Saving Time Indicator
    ASHRAEClearSky,          !- Solar Model Indicator
    ,                        !- Beam Solar Day Schedule Name
    ,                        !- Diffuse Solar Day Schedule Name
    ,                        !- ASHRAE Clear Sky Optical Depth for Beam Irradiance (taub) {dimensionless}
    ,                        !- ASHRAE Clear Sky Optical Depth for Diffuse Irradiance (taud) {dimensionless}
    0.00;                    !- Sky Clearness

  SizingPeriod:DesignDay,
    DENVER_STAPLETON Ann Clg .4% Condns DB=>MWB,  !- Name
    7,                       !- Month
    21,                      !- Day of Month
    SummerDesignDay,         !- Day Type
    34.1,                    !- Maximum Dry-Bulb Temperature {C}
    15.2,                    !- Daily Dry-Bulb Temperature Range {deltaC}
    ,                        !- Dry-Bulb Temperature Range Modifier Type
    ,                        !- Dry-Bulb Temperature Range Modifier Day Schedule Name
    Wetbulb,                 !- Humidity Condition Type
    15.8,                    !- Wetbulb or DewPoint at Maximum Dry-Bulb {C}
    ,                        !- Humidity Condition Day Schedule Name
    ,                        !- Humidity Ratio at Maximum Dry-Bulb {kgWater/kgDryAir}
    ,                        !- Enthalpy at Maximum Dry-Bulb {J/kg}
    ,                        !- Daily Wet-Bulb Temperature Range {deltaC}
    83411.,                  !- Barometric Pressure {Pa}
    4,                       !- Wind Speed {m/s}
    120,                     !- Wind Direction {deg}
    No,                      !- Rain Indicator
    No,                      !- Snow Indicator
    No,                      !- Daylight Saving Time Indicator
    ASHRAEClearSky,          !- Solar Model Indicator
    ,                        !- Beam Solar Day Schedule Name
    ,                        !- Diffuse Solar Day Schedule Name
    ,                        !- ASHRAE Clear Sky Optical Depth for Beam Irradiance (taub) {dimensionless}
    ,                        !- ASHRAE Clear Sky Optical Depth for Diffuse Irradiance (taud) {dimensionless}
    1.00;                    !- Sky Clearness

  RunPeriod,
    Run Period 1,            !- Name
    1,                       !- Begin Month
    1,                       !- Begin Day of Month
    ,                        !- Begin Year
    1,                      !- End Month
    14,                      !- End Day of Month
    ,                        !- End Year
    Tuesday,                 !- Day of Week for Start Day
    Yes,                     !- Use Weather File Holidays and Special Days
    Yes,                     !- Use Weather File Daylight Saving Period
    No,                      !- Apply Weekend Holiday Rule
    Yes,                     !- Use Weather File Rain Indicators
    Yes;                     !- Use Weather File Snow Indicators

  SimulationControl,
    No,                      !- Do Zone Sizing Calculation
    No,                      !- Do System Sizing Calculation
    No,                      !- Do Plant Sizing Calculation
    Yes,                     !- Run Simulation for Sizing Periods
    Yes;                      !- Run Simulation for Weather File Run Periods

  Output:Variable,*,Schedule Value,Timestep;

  Output:Variable,*,New Schedule Value,Timestep;

  OutputControl:Table:Style,
    HTML;                    !- Column Separator

  Output:Table:SummaryReports,
    AllSummary;              !- Report 1 Name

