!-Generator IDFEditor 1.34
!-Option OriginalOrderTop UseSpecialFormat
!-NOTE: All comments with '!-' are ignored by the IDFEditor and are generated automatically.
!-      Use '!' comments if they need to be retained when using the IDFEditor.
!ShopWithSimplePVT.idf
! Basic file description:  1 story building divided into 4 exterior and one interior conditioned zones and return plenum.
!
! Highlights:              on-site energy supply building with two types of simple/ideal Photovoltaic-Thermal flat plate solar collectors,
!                          1. an air-based PVT roof surface
!                          2. water-based PVT collector array.
!                          building is a fairly comprehensive model with full HVAC, service water heating, etc.
!
! Simulation Location/Run: OKLAHOMA_CITY_OK_USA TMY2-13967, 2 design days, 1 run period
!
! Location:                Oklahoma City, OK
!
! Design Days:             OKLAHOMA_CITY_OK_USA Heating 99.6% Conditions
!                          OKLAHOMA_CITY_OK_USA Cooling .4% Conditions WB=>MDB
!
! Run Period (Weather File):
!
! Run Control:             Zone and System sizing with weather file run control (no design days run)
!
! Building:  small service repair shop.  open Mon-Fri, 45 hours a week,
!            model developed from 2003CBECS PUBID8=2994
!            Envelope and equipment set to nominally meet ASHRAE Standard 90.1-2004
!
!
! Floor Area:        390.19 m2 (4200 ft2)
! Number of Stories: 1
!
! Zone Description Details:
!
! Internal gains description:     lighting is 15 watts/m2, service equip is 8.3 watts/m2. There are 3 occupants.
!                                  The infiltration is about 0.5 air changes per hour.
!
!
! Detached Shading:               5 shading surfaces representing solar collector geometry, roof mounted.
! Daylight:                       No controls
! Natural Ventilation:            None
! Compact Schedules:              Yes
!
! HVAC:                           Single zone, constant-volume air systems.  Single zone reheat setpoint manager
!                                 5 seperate "packages"
!                                 outside air systems include ideal PVT air preconditioners.
!
! Zonal Equipment:                Direct Air/Single Duct Uncontrolled.
! Central Air Handling Equipment: no ( but uses central-air-style air handlers for PSZ)
! System Equipment Autosize:      Yes
! Coils:                          DX
! Pumps:                          Pump:VariableSpeed for SWH
! Service Water Heating:          full plant loop SWH system with mixed tank,
!                                 PVT water-based collectors indirectly heat with electric backup
!
! Results:                        Various timestep node values.
! Standard Reports:               All Summary
! Timestep or Hourly Variables:   Timestep
! Time bins Report:               None
! HTML Report:                    Yes, All Summary, many load center monthly report tables.
! Environmental Emissions:        Yes
! Utility Tariffs:                Yes, (circa 2004, Reliant , TX)

  Version,24.1;

  Timestep,12;

  SimulationControl,
    Yes,                     !- Do Zone Sizing Calculation
    Yes,                     !- Do System Sizing Calculation
    No,                      !- Do Plant Sizing Calculation
    Yes,                     !- Run Simulation for Sizing Periods
    Yes,                     !- Run Simulation for Weather File Run Periods
    No,                      !- Do HVAC Sizing Simulation for Sizing Periods
    1;                       !- Maximum Number of HVAC Sizing Simulation Passes

  RunPeriod,
    Run Period 1,            !- Name
    1,                       !- Begin Month
    1,                       !- Begin Day of Month
    ,                        !- Begin Year
    1,                       !- End Month
    7,                       !- End Day of Month
    ,                        !- End Year
    Sunday,                  !- Day of Week for Start Day
    No,                      !- Use Weather File Holidays and Special Days
    No,                      !- Use Weather File Daylight Saving Period
    No,                      !- Apply Weekend Holiday Rule
    Yes,                     !- Use Weather File Rain Indicators
    Yes;                     !- Use Weather File Snow Indicators

  RunPeriod,
    Run Period 2,            !- Name
    7,                       !- Begin Month
    1,                       !- Begin Day of Month
    ,                        !- Begin Year
    7,                       !- End Month
    7,                       !- End Day of Month
    ,                        !- End Year
    Sunday,                  !- Day of Week for Start Day
    No,                      !- Use Weather File Holidays and Special Days
    No,                      !- Use Weather File Daylight Saving Period
    No,                      !- Apply Weekend Holiday Rule
    Yes,                     !- Use Weather File Rain Indicators
    Yes;                     !- Use Weather File Snow Indicators

  SurfaceConvectionAlgorithm:Inside,TARP;

  SurfaceConvectionAlgorithm:Outside,DOE-2;

  HeatBalanceAlgorithm,ConductionTransferFunction;

  Sizing:Parameters,
    1.2000,                  !- Heating Sizing Factor
    1.2000,                  !- Cooling Sizing Factor
    ;                        !- Timesteps in Averaging Window

  ConvergenceLimits,
    5,                       !- Minimum System Timestep {minutes}
    10;                      !- Maximum HVAC Iterations

  ShadowCalculation,
    PolygonClipping,         !- Shading Calculation Method
    Periodic,                !- Shading Calculation Update Frequency Method
    30;                      !- Shading Calculation Update Frequency

  GlobalGeometryRules,
    UpperLeftCorner,         !- Starting Vertex Position
    CounterClockWise,        !- Vertex Entry Direction
    Relative;                !- Coordinate System

  Building,
    AutoBuilt Model: All,    !- Name
    0.0,                     !- North Axis {deg}
    City,                    !- Terrain
    0.0400,                  !- Loads Convergence Tolerance Value {W}
    0.2000,                  !- Temperature Convergence Tolerance Value {deltaC}
    FullInteriorAndExterior, !- Solar Distribution
    25,                      !- Maximum Number of Warmup Days
    6;                       !- Minimum Number of Warmup Days

! US National Holidays

  RunPeriodControl:SpecialDays,
    New Years Day,           !- Name
    January 1,               !- Start Date
    1,                       !- Duration {days}
    Holiday;                 !- Special Day Type

  RunPeriodControl:SpecialDays,
    Veterans Day,            !- Name
    November 11,             !- Start Date
    1,                       !- Duration {days}
    Holiday;                 !- Special Day Type

  RunPeriodControl:SpecialDays,
    Christmas,               !- Name
    December 25,             !- Start Date
    1,                       !- Duration {days}
    Holiday;                 !- Special Day Type

  RunPeriodControl:SpecialDays,
    Independence Day,        !- Name
    July 4,                  !- Start Date
    1,                       !- Duration {days}
    Holiday;                 !- Special Day Type

  RunPeriodControl:SpecialDays,
    MLK Day,                 !- Name
    3rd Monday in January,   !- Start Date
    1,                       !- Duration {days}
    Holiday;                 !- Special Day Type

  RunPeriodControl:SpecialDays,
    Presidents Day,          !- Name
    3rd Monday in February,  !- Start Date
    1,                       !- Duration {days}
    Holiday;                 !- Special Day Type

  RunPeriodControl:SpecialDays,
    Memorial Day,            !- Name
    Last Monday in May,      !- Start Date
    1,                       !- Duration {days}
    Holiday;                 !- Special Day Type

  RunPeriodControl:SpecialDays,
    Labor Day,               !- Name
    1st Monday in September, !- Start Date
    1,                       !- Duration {days}
    Holiday;                 !- Special Day Type

  RunPeriodControl:SpecialDays,
    Columbus Day,            !- Name
    2nd Monday in October,   !- Start Date
    1,                       !- Duration {days}
    Holiday;                 !- Special Day Type

  RunPeriodControl:SpecialDays,
    Thanksgiving,            !- Name
    4th Thursday in November,!- Start Date
    1,                       !- Duration {days}
    Holiday;                 !- Special Day Type

! Daylight Saving Period in US

  RunPeriodControl:DaylightSavingTime,
    1st Sunday in April,     !- Start Date
    Last Sunday in October;  !- End Date

  Site:Location,
    OKLAHOMA_CITY_OK_USA TMY2-13967,  !- Name
    35.40000,                !- Latitude {deg}
    -97.60000,               !- Longitude {deg}
    -6.000000,               !- Time Zone {hr}
    397.0000;                !- Elevation {m}

! OKLAHOMA_CITY_OK_USA Heating 99.6%, MaxDB= -12.60 Wind Speed=   6.90 Wind Dir= 360.00

  SizingPeriod:DesignDay,
    OKLAHOMA_CITY_OK_USA Heating 99.6% Conditions,  !- Name
    1,                       !- Month
    21,                      !- Day of Month
    WinterDesignDay,         !- Day Type
    -12.60000,               !- Maximum Dry-Bulb Temperature {C}
    0,                       !- Daily Dry-Bulb Temperature Range {deltaC}
    ,                        !- Dry-Bulb Temperature Range Modifier Type
    ,                        !- Dry-Bulb Temperature Range Modifier Day Schedule Name
    Wetbulb,                 !- Humidity Condition Type
    -12.60000,               !- Wetbulb or DewPoint at Maximum Dry-Bulb {C}
    ,                        !- Humidity Condition Day Schedule Name
    ,                        !- Humidity Ratio at Maximum Dry-Bulb {kgWater/kgDryAir}
    ,                        !- Enthalpy at Maximum Dry-Bulb {J/kg}
    ,                        !- Daily Wet-Bulb Temperature Range {deltaC}
    96645.77,                !- Barometric Pressure {Pa}
    6.900000,                !- Wind Speed {m/s}
    360.0000,                !- Wind Direction {deg}
    No,                      !- Rain Indicator
    No,                      !- Snow Indicator
    No,                      !- Daylight Saving Time Indicator
    ASHRAEClearSky,          !- Solar Model Indicator
    ,                        !- Beam Solar Day Schedule Name
    ,                        !- Diffuse Solar Day Schedule Name
    ,                        !- ASHRAE Clear Sky Optical Depth for Beam Irradiance (taub) {dimensionless}
    ,                        !- ASHRAE Clear Sky Optical Depth for Diffuse Irradiance (taud) {dimensionless}
    0;                       !- Sky Clearness

! OKLAHOMA_CITY_OK_USA Cooling (WB=>MDB) .4%, MDB=  32.80 WB=  24.90

  SizingPeriod:DesignDay,
    OKLAHOMA_CITY_OK_USA Cooling .4% Conditions WB=>MDB,  !- Name
    7,                       !- Month
    21,                      !- Day of Month
    SummerDesignDay,         !- Day Type
    32.80000,                !- Maximum Dry-Bulb Temperature {C}
    11.70000,                !- Daily Dry-Bulb Temperature Range {deltaC}
    ,                        !- Dry-Bulb Temperature Range Modifier Type
    ,                        !- Dry-Bulb Temperature Range Modifier Day Schedule Name
    Wetbulb,                 !- Humidity Condition Type
    24.90000,                !- Wetbulb or DewPoint at Maximum Dry-Bulb {C}
    ,                        !- Humidity Condition Day Schedule Name
    ,                        !- Humidity Ratio at Maximum Dry-Bulb {kgWater/kgDryAir}
    ,                        !- Enthalpy at Maximum Dry-Bulb {J/kg}
    ,                        !- Daily Wet-Bulb Temperature Range {deltaC}
    96645.77,                !- Barometric Pressure {Pa}
    0,                       !- Wind Speed {m/s}
    0,                       !- Wind Direction {deg}
    No,                      !- Rain Indicator
    No,                      !- Snow Indicator
    No,                      !- Daylight Saving Time Indicator
    ASHRAEClearSky,          !- Solar Model Indicator
    ,                        !- Beam Solar Day Schedule Name
    ,                        !- Diffuse Solar Day Schedule Name
    ,                        !- ASHRAE Clear Sky Optical Depth for Beam Irradiance (taub) {dimensionless}
    ,                        !- ASHRAE Clear Sky Optical Depth for Diffuse Irradiance (taud) {dimensionless}
    1.000000;                !- Sky Clearness

  Site:GroundTemperature:BuildingSurface,20.03,20.05,20.08,20.10,20.18,20.23,20.22,20.19,20.26,20.25,20.23,20.20;

! Daily Avg, -0.3, 3.3, 10.4, 14.8, 20.6, 23.7, 26.3, 27.9, 22.0, 16.9, 9.7, 5.1

  Site:WaterMainsTemperature,
    CORRELATION,             !- Calculation Method
    ,                        !- Temperature Schedule Name
    15.03,                   !- Annual Average Outdoor Air Temperature {C}
    28.20;                   !- Maximum Difference In Monthly Average Outdoor Air Temperatures {deltaC}

  ScheduleTypeLimits,
    Any Number;              !- Name

  ScheduleTypeLimits,
    Fraction,                !- Name
    0.0,                     !- Lower Limit Value
    1.0,                     !- Upper Limit Value
    CONTINUOUS;              !- Numeric Type

  ScheduleTypeLimits,
    Temperature,             !- Name
    -60,                     !- Lower Limit Value
    200,                     !- Upper Limit Value
    CONTINUOUS,              !- Numeric Type
    Temperature;             !- Unit Type

  ScheduleTypeLimits,
    On/Off,                  !- Name
    0,                       !- Lower Limit Value
    1,                       !- Upper Limit Value
    DISCRETE;                !- Numeric Type

  ScheduleTypeLimits,
    Control Type,            !- Name
    0,                       !- Lower Limit Value
    4,                       !- Upper Limit Value
    DISCRETE;                !- Numeric Type

  ScheduleTypeLimits,
    Humidity,                !- Name
    10,                      !- Lower Limit Value
    90,                      !- Upper Limit Value
    CONTINUOUS;              !- Numeric Type

  ScheduleTypeLimits,
    Number;                  !- Name

!  PBA:  26: Service
!  PBA+: 45: Repair shop
!  Weekly Hours: 45
!  Open 24 Hours: False
!  Open Weekends: False
!  Days Open: Open Mon-Fri
!  Months Not Open: 0
!  Month Occupied (not always used): 0
!  Schedule valid for the following building IDs
!  ID_2994

  Schedule:Compact,
    ALWAYS_ON,               !- Name
    On/Off,                  !- Schedule Type Limits Name
    Through: 12/31,          !- Field 1
    For: AllDays,            !- Field 2
    Until: 24:00,1;          !- Field 3

  Schedule:Compact,
    WORK_EFF_SCH,            !- Name
    Fraction,                !- Schedule Type Limits Name
    Through: 12/31,          !- Field 1
    For: AllDays,            !- Field 2
    Until: 24:00,0;          !- Field 3

  Schedule:Compact,
    AIR_VELO_SCH,            !- Name
    Any Number,              !- Schedule Type Limits Name
    Through: 12/31,          !- Field 1
    For: AllDays,            !- Field 2
    Until: 24:00,0.2;        !- Field 3

  Schedule:Compact,
    CLOTHING_SCH,            !- Name
    Any Number,              !- Schedule Type Limits Name
    Through: 04/30,          !- Field 1
    For: AllDays,            !- Field 2
    Until: 24:00,1.1,        !- Field 3
    Through: 09/30,          !- Field 5
    For: AllDays,            !- Field 6
    Until: 24:00,0.6,        !- Field 7
    Through: 12/31,          !- Field 9
    For: AllDays,            !- Field 10
    Until: 24:00,1.1;        !- Field 11

  Schedule:Compact,
    PlantOnSched,            !- Name
    Any Number,              !- Schedule Type Limits Name
    Through: 12/31,          !- Field 1
    For: AllDays,            !- Field 2
    Until: 24:00,1;          !- Field 3

  Schedule:Compact,
    Dual Zone Control Type Sched,  !- Name
    Control Type,            !- Schedule Type Limits Name
    Through: 12/31,          !- Field 1
    For: AllDays,            !- Field 2
    Until: 24:00,4;          !- Field 3

!  Schedule for hours of operation
!  Assigned 45 hours

  Schedule:Compact,
    Hours_of_operation,      !- Name
    On/Off,                  !- Schedule Type Limits Name
    Through: 12/31,          !- Field 1
    For: Weekdays SummerDesignDay, !- Field 2
    Until: 10:00,0,          !- Field 3
    Until: 19:00,1,          !- Field 5
    Until: 24:00,0,          !- Field 7
    For: WeekEnds WinterDesignDay Holidays AllOtherDays, !- Field 9
    Until: 24:00,0;          !- Field 10

!  Schedule for HVAC operation

  Schedule:Compact,
    HVACOperationSchd,       !- Name
    On/Off,                  !- Schedule Type Limits Name
    Through: 12/31,          !- Field 1
    For: Weekdays SummerDesignDay, !- Field 2
    Until: 10:00,0,          !- Field 3
    Until: 19:00,1,          !- Field 5
    Until: 24:00,0,          !- Field 7
    For: WeekEnds WinterDesignDay Holidays AllOtherDays, !- Field 9
    Until: 24:00,0;          !- Field 10

!  Heating Setpoint

  Schedule:Compact,
    HTGSETP_SCH,             !- Name
    Temperature,             !- Schedule Type Limits Name
    Through: 12/31,          !- Field 1
    For: SummerDesignDay,    !- Field 2
    Until: 24:00,13,         !- Field 3
    For: WinterDesignDay,    !- Field 5
    Until: 24:00,21,         !- Field 6
    For: Weekdays,           !- Field 8
    Until: 10:00,13,         !- Field 9
    Until: 19:00,21,         !- Field 11
    Until: 24:00,13,         !- Field 13
    For: WeekEnds Holidays AllOtherDays, !- Field 15
    Until: 24:00,13;         !- Field 16

!  Cooling Setpoint

  Schedule:Compact,
    CLGSETP_SCH,             !- Name
    Temperature,             !- Schedule Type Limits Name
    Through: 12/31,          !- Field 1
    For: SummerDesignDay,    !- Field 2
    Until: 24:00,24,         !- Field 3
    For: WinterDesignDay,    !- Field 5
    Until: 24:00,33,         !- Field 6
    For: WeekEnds,           !- Field 8
    Until: 24:00,33,         !- Field 9
    For: Weekdays Holidays AllOtherDays, !- Field 11
    Until: 10:00,33,         !- Field 12
    Until: 19:00,24,         !- Field 14
    Until: 24:00,33;         !- Field 16

!  Minimum outside air schedule
!  Gravity Damper

  Schedule:Compact,
    MinOA_Sched,             !- Name
    On/Off,                  !- Schedule Type Limits Name
    Through: 12/31,          !- Field 1
    For: AllDays,            !- Field 2
    Until: 24:00,1;          !- Field 3

!  Lighting schedule
!  Lighting Reduced: True
!  Percent Lit When Closed: 0
!  Percent Lit When Open: 100

  Schedule:Compact,
    BLDG_LIGHT_SCH,          !- Name
    Fraction,                !- Schedule Type Limits Name
    Through: 12/31,          !- Field 1
    For: Weekdays SummerDesignDay, !- Field 2
    Until: 10:00,0,          !- Field 3
    Until: 19:00,0.943,      !- Field 5
    Until: 24:00,0,          !- Field 7
    For: WeekEnds WinterDesignDay Holidays AllOtherDays, !- Field 9
    Until: 24:00,0;          !- Field 10

!  Equipment Schedule
!  Minimum Equipment Percent: 10
!  Maximum Equipment Percent: 95
!  Equipment turned off during off hours: Always

  Schedule:Compact,
    BLDG_EQUIP_SCH,          !- Name
    Fraction,                !- Schedule Type Limits Name
    Through: 12/31,          !- Field 1
    For: Weekdays SummerDesignDay, !- Field 2
    Until: 10:00,0.1,        !- Field 3
    Until: 19:00,0.95,       !- Field 5
    Until: 24:00,0.1,        !- Field 7
    For: WeekEnds WinterDesignDay Holidays AllOtherDays, !- Field 9
    Until: 24:00,0.1;        !- Field 10

!  Occupancy Schedule
!  Minimum Occupancy Percent: 0
!  Maximum Occupancy Percent: 95

  Schedule:Compact,
    BLDG_OCC_SCH,            !- Name
    Fraction,                !- Schedule Type Limits Name
    Through: 12/31,          !- Field 1
    For: Weekdays SummerDesignDay, !- Field 2
    Until: 10:00,0,          !- Field 3
    Until: 12:00,0.95,       !- Field 5
    Until: 13:00,0.5,        !- Field 7
    Until: 19:00,0.95,       !- Field 9
    Until: 24:00,0,          !- Field 11
    For: WeekEnds WinterDesignDay Holidays AllOtherDays, !- Field 13
    Until: 24:00,0;          !- Field 14

!  Infiltration Schedule
!  Infiltration Percent w/o HVAC: 100
!  Infiltration Percent w/HVAC: 100

  Schedule:Compact,
    INFIL_SCH,               !- Name
    Fraction,                !- Schedule Type Limits Name
    Through: 12/31,          !- Field 1
    For: AllDays,            !- Field 2
    Until: 24:00,1;          !- Field 3

!  Activity Schedule

  Schedule:Compact,
    ACTIVITY_SCH,            !- Name
    Any Number,              !- Schedule Type Limits Name
    Through: 12/31,          !- Field 1
    For: AllDays,            !- Field 2
    Until: 24:00,140;        !- Field 3

  WindowMaterial:Glazing,
    Theoretical Glass [23],  !- Name
    SpectralAverage,         !- Optical Data Type
    ,                        !- Window Glass Spectral Data Set Name
    0.0030,                  !- Thickness {m}
    0.5531,                  !- Solar Transmittance at Normal Incidence
    0.3969,                  !- Front Side Solar Reflectance at Normal Incidence
    0.3969,                  !- Back Side Solar Reflectance at Normal Incidence
    0.6041,                  !- Visible Transmittance at Normal Incidence
    0.3459,                  !- Front Side Visible Reflectance at Normal Incidence
    0.3459,                  !- Back Side Visible Reflectance at Normal Incidence
    0.0000,                  !- Infrared Transmittance at Normal Incidence
    0.8500,                  !- Front Side Infrared Hemispherical Emissivity
    0.8500,                  !- Back Side Infrared Hemispherical Emissivity
    2.3904;                  !- Conductivity {W/m-K}

  WindowMaterial:Gas,
    AIR 6MM,                 !- Name
    Air,                     !- Gas Type
    0.0063;                  !- Thickness {m}

  WindowMaterial:Glazing,
    Theoretical Glass [24],  !- Name
    SpectralAverage,         !- Optical Data Type
    ,                        !- Window Glass Spectral Data Set Name
    0.0030,                  !- Thickness {m}
    0.6483,                  !- Solar Transmittance at Normal Incidence
    0.3017,                  !- Front Side Solar Reflectance at Normal Incidence
    0.3017,                  !- Back Side Solar Reflectance at Normal Incidence
    0.7094,                  !- Visible Transmittance at Normal Incidence
    0.2406,                  !- Front Side Visible Reflectance at Normal Incidence
    0.2406,                  !- Back Side Visible Reflectance at Normal Incidence
    0.0000,                  !- Infrared Transmittance at Normal Incidence
    0.8500,                  !- Front Side Infrared Hemispherical Emissivity
    0.8500,                  !- Back Side Infrared Hemispherical Emissivity
    2.4179;                  !- Conductivity {W/m-K}

  WindowMaterial:Glazing,
    Theoretical Glass [8],   !- Name
    SpectralAverage,         !- Optical Data Type
    ,                        !- Window Glass Spectral Data Set Name
    0.0030,                  !- Thickness {m}
    0.3480,                  !- Solar Transmittance at Normal Incidence
    0.6020,                  !- Front Side Solar Reflectance at Normal Incidence
    0.6020,                  !- Back Side Solar Reflectance at Normal Incidence
    0.3763,                  !- Visible Transmittance at Normal Incidence
    0.5737,                  !- Front Side Visible Reflectance at Normal Incidence
    0.5737,                  !- Back Side Visible Reflectance at Normal Incidence
    0.0000,                  !- Infrared Transmittance at Normal Incidence
    0.9990,                  !- Front Side Infrared Hemispherical Emissivity
    0.9990,                  !- Back Side Infrared Hemispherical Emissivity
    2.2444;                  !- Conductivity {W/m-K}

  Material,
    Roof Membrane,           !- Name
    VeryRough,               !- Roughness
    0.0095,                  !- Thickness {m}
    0.1600,                  !- Conductivity {W/m-K}
    1121.2900,               !- Density {kg/m3}
    1460.0000,               !- Specific Heat {J/kg-K}
    0.9000,                  !- Thermal Absorptance
    0.7000,                  !- Solar Absorptance
    0.7000;                  !- Visible Absorptance

  Material,
    Roof Insulation,         !- Name
    MediumRough,             !- Roughness
    0.1250,                  !- Thickness {m}
    0.0490,                  !- Conductivity {W/m-K}
    265.0000,                !- Density {kg/m3}
    836.8000,                !- Specific Heat {J/kg-K}
    0.9000,                  !- Thermal Absorptance
    0.7000,                  !- Solar Absorptance
    0.7000;                  !- Visible Absorptance

  Material,
    Metal Decking,           !- Name
    MediumSmooth,            !- Roughness
    0.0015,                  !- Thickness {m}
    45.0060,                 !- Conductivity {W/m-K}
    7680.0000,               !- Density {kg/m3}
    418.4000,                !- Specific Heat {J/kg-K}
    0.9000,                  !- Thermal Absorptance
    0.7000,                  !- Solar Absorptance
    0.3000;                  !- Visible Absorptance

  Material,
    GP01 1/2 GYPSUM,         !- Name
    Smooth,                  !- Roughness
    0.0127,                  !- Thickness {m}
    0.1600,                  !- Conductivity {W/m-K}
    800.0000,                !- Density {kg/m3}
    1090.0000,               !- Specific Heat {J/kg-K}
    0.9000,                  !- Thermal Absorptance
    0.7000,                  !- Solar Absorptance
    0.5000;                  !- Visible Absorptance

  Material:NoMass,
    MAT-SHEATH,              !- Name
    Rough,                   !- Roughness
    0.3626,                  !- Thermal Resistance {m2-K/W}
    0.9000,                  !- Thermal Absorptance
    0.7000,                  !- Solar Absorptance
    0.7000;                  !- Visible Absorptance

  Material,
    Wall Insulation [2],     !- Name
    MediumRough,             !- Roughness
    0.0376,                  !- Thickness {m}
    0.0450,                  !- Conductivity {W/m-K}
    265.0000,                !- Density {kg/m3}
    836.8000,                !- Specific Heat {J/kg-K}
    0.9000,                  !- Thermal Absorptance
    0.7000,                  !- Solar Absorptance
    0.7000;                  !- Visible Absorptance

  Material,
    1/2IN Gypsum,            !- Name
    Smooth,                  !- Roughness
    0.0127,                  !- Thickness {m}
    0.1600,                  !- Conductivity {W/m-K}
    784.9000,                !- Density {kg/m3}
    830.0000,                !- Specific Heat {J/kg-K}
    0.9000,                  !- Thermal Absorptance
    0.9200,                  !- Solar Absorptance
    0.9200;                  !- Visible Absorptance

  Material,
    MAT-CC05 8 HW CONCRETE,  !- Name
    Rough,                   !- Roughness
    0.2032,                  !- Thickness {m}
    1.3110,                  !- Conductivity {W/m-K}
    2240.0000,               !- Density {kg/m3}
    836.8000,                !- Specific Heat {J/kg-K}
    0.9000,                  !- Thermal Absorptance
    0.7000,                  !- Solar Absorptance
    0.7000;                  !- Visible Absorptance

  Material:NoMass,
    CP02 CARPET PAD,         !- Name
    VeryRough,               !- Roughness
    0.2165,                  !- Thermal Resistance {m2-K/W}
    0.9000,                  !- Thermal Absorptance
    0.7000,                  !- Solar Absorptance
    0.8000;                  !- Visible Absorptance

  Material,
    Floor Insulation [2],    !- Name
    MediumRough,             !- Roughness
    0.0503,                  !- Thickness {m}
    0.0450,                  !- Conductivity {W/m-K}
    265.0000,                !- Density {kg/m3}
    836.8000,                !- Specific Heat {J/kg-K}
    0.9000,                  !- Thermal Absorptance
    0.7000,                  !- Solar Absorptance
    0.7000;                  !- Visible Absorptance

  Material,
    1/2IN Gypsum Top,        !- Name
    Smooth,                  !- Roughness
    0.0127,                  !- Thickness {m}
    0.1600,                  !- Conductivity {W/m-K}
    784.9000,                !- Density {kg/m3}
    830.0000,                !- Specific Heat {J/kg-K}
    0.9000,                  !- Thermal Absorptance
    0.9200,                  !- Solar Absorptance
    0.9200;                  !- Visible Absorptance

  Material,
    AtticFloor Insulation,   !- Name
    MediumRough,             !- Roughness
    0.2379,                  !- Thickness {m}
    0.0490,                  !- Conductivity {W/m-K}
    265.0000,                !- Density {kg/m3}
    836.8000,                !- Specific Heat {J/kg-K}
    0.9000,                  !- Thermal Absorptance
    0.7000,                  !- Solar Absorptance
    0.7000;                  !- Visible Absorptance

  Material,
    1/2IN Gypsum Bottom,     !- Name
    Smooth,                  !- Roughness
    0.0127,                  !- Thickness {m}
    0.1600,                  !- Conductivity {W/m-K}
    784.9000,                !- Density {kg/m3}
    830.0000,                !- Specific Heat {J/kg-K}
    0.9000,                  !- Thermal Absorptance
    0.9200,                  !- Solar Absorptance
    0.9200;                  !- Visible Absorptance

  Material,
    Std Wood 6inch,          !- Name
    MediumSmooth,            !- Roughness
    0.15,                    !- Thickness {m}
    0.12,                    !- Conductivity {W/m-K}
    540.0000,                !- Density {kg/m3}
    1210,                    !- Specific Heat {J/kg-K}
    0.9000000,               !- Thermal Absorptance
    0.7000000,               !- Solar Absorptance
    0.7000000;               !- Visible Absorptance

  Material,
    Std 1.5  MW CONCRETE,    !- Name