! SmallOffice_CentralDOAS RefBldgSmallOfficeNew2004_Chicago.idf
!
! This example file is revised based on RefBldgSmallOfficeNew2004_Chicago.idf
!
! Description:  Single story, five zone office building.
! Form:         Area = 511 m2 (5,500 ft2); Number of Stories = 1; Shape = rectangle, Aspect ratio = 1.5
! Envelope:     Envelope thermal properties vary with climate according to ASHRAE Standard 90.1-2004.
!               Opaque constructions: mass walls; attic roof; slab-on-grade floor
!               Windows: window-to-wall ratio = 21.2%, equal distribution of punched windows
!               Infiltration = 0.4 cfm/ft2 above grade wall area at 0.3 in wc (75 Pa) adjusted to 0.016 in wc (4 Pa).
!                              25% of full value when ventilation system on.
! HVAC:         PSZ-AC, gas furnace
!               No economizers, per ASHRAE 90.1-2004
!               A central DOAS to provide outdoor air for 5 AirLoopHVACs. It has two water coils to pretreat outdoor air.
!
! Int. gains:   lights = 10.76 W/m2 (1.0 W/ft2) (building area method);
!               elec. plug loads = 10.76 W/m2 (1.0 W/ft2)
!               gas plug load = 0 W/m2 (0 W/ft2)
!               people = 28 total; 5.38/100 m2 (5.0/1000 ft2)
!
! Detached Shading:               None
! Daylight:                       None
! Natural Ventilation:            None
! Zonal Equipment:                None
! Air Primary Loops:              PSZ
! Plant Loops:                    SHWSys1
! System Equipment Autosize:      Yes
! Purchased Cooling:              None
! Purchased Heating:              None
! Coils:                          Coil:Cooling:DX:SingleSpeed; Coil:Heating:Fuel;
!                                 Coil:Heating:Water; Coil:Cooling:Water
! Pumps:                          Yes
! Boilers:                        Yes
! Chillers:                       Yes
!
! ***GENERAL SIMULATION PARAMETERS***
! Number of Zones: 6

  Version,24.1;

  SimulationControl,
    YES,                     !- Do Zone Sizing Calculation
    YES,                     !- Do System Sizing Calculation
    YES,                     !- Do Plant Sizing Calculation
    YES,                     !- Run Simulation for Sizing Periods
    NO,                      !- Run Simulation for Weather File Run Periods
    No,                      !- Do HVAC Sizing Simulation for Sizing Periods
    1;                       !- Maximum Number of HVAC Sizing Simulation Passes

  Building,
    Ref Bldg Small Office New2004_v1.3_5.0,  !- Name
    0.0000,                  !- North Axis {deg}
    City,                    !- Terrain
    0.0400,                  !- Loads Convergence Tolerance Value {W}
    0.2000,                  !- Temperature Convergence Tolerance Value {deltaC}
    FullInteriorAndExterior, !- Solar Distribution
    25,                      !- Maximum Number of Warmup Days
    6;                       !- Minimum Number of Warmup Days

  RunPeriod,
    Annual,                  !- Name
    1,                       !- Begin Month
    1,                       !- Begin Day of Month
    ,                        !- Begin Year
    12,                      !- End Month
    31,                      !- End Day of Month
    ,                        !- End Year
    Sunday,                  !- Day of Week for Start Day
    No,                      !- Use Weather File Holidays and Special Days
    No,                      !- Use Weather File Daylight Saving Period
    No,                      !- Apply Weekend Holiday Rule
    Yes,                     !- Use Weather File Rain Indicators
    Yes;                     !- Use Weather File Snow Indicators

! ***HOLIDAYS & DAYLIGHT SAVINGS***

  RunPeriodControl:DaylightSavingTime,
    2nd Sunday in March,     !- Start Date
    1st Sunday in November;  !- End Date

  RunPeriodControl:SpecialDays,
    New Years Day,           !- Name
    January 1,               !- Start Date
    1,                       !- Duration {days}
    Holiday;                 !- Special Day Type

  RunPeriodControl:SpecialDays,
    Veterans Day,            !- Name
    November 11,             !- Start Date
    1,                       !- Duration {days}
    Holiday;                 !- Special Day Type

  RunPeriodControl:SpecialDays,
    Christmas,               !- Name
    December 25,             !- Start Date
    1,                       !- Duration {days}
    Holiday;                 !- Special Day Type

  RunPeriodControl:SpecialDays,
    Independence Day,        !- Name
    July 4,                  !- Start Date
    1,                       !- Duration {days}
    Holiday;                 !- Special Day Type

  RunPeriodControl:SpecialDays,
    MLK Day,                 !- Name
    3rd Monday in January,   !- Start Date
    1,                       !- Duration {days}
    Holiday;                 !- Special Day Type

  RunPeriodControl:SpecialDays,
    Presidents Day,          !- Name
    3rd Monday in February,  !- Start Date
    1,                       !- Duration {days}
    Holiday;                 !- Special Day Type

  RunPeriodControl:SpecialDays,
    Memorial Day,            !- Name
    Last Monday in May,      !- Start Date
    1,                       !- Duration {days}
    Holiday;                 !- Special Day Type

  RunPeriodControl:SpecialDays,
    Labor Day,               !- Name
    1st Monday in September, !- Start Date
    1,                       !- Duration {days}
    Holiday;                 !- Special Day Type

  RunPeriodControl:SpecialDays,
    Columbus Day,            !- Name
    2nd Monday in October,   !- Start Date
    1,                       !- Duration {days}
    Holiday;                 !- Special Day Type

  RunPeriodControl:SpecialDays,
    Thanksgiving,            !- Name
    4th Thursday in November,!- Start Date
    1,                       !- Duration {days}
    Holiday;                 !- Special Day Type

! ***SCHEDULE TYPES***

  ScheduleTypeLimits,
    Any Number;              !- Name

  ScheduleTypeLimits,
    Fraction,                !- Name
    0.0,                     !- Lower Limit Value
    1.0,                     !- Upper Limit Value
    CONTINUOUS;              !- Numeric Type

  ScheduleTypeLimits,
    Temperature,             !- Name
    -60,                     !- Lower Limit Value
    200,                     !- Upper Limit Value
    CONTINUOUS;              !- Numeric Type

  ScheduleTypeLimits,
    On/Off,                  !- Name
    0,                       !- Lower Limit Value
    1,                       !- Upper Limit Value
    DISCRETE;                !- Numeric Type

  ScheduleTypeLimits,
    Control Type,            !- Name
    0,                       !- Lower Limit Value
    4,                       !- Upper Limit Value
    DISCRETE;                !- Numeric Type

  ScheduleTypeLimits,
    Humidity,                !- Name
    10,                      !- Lower Limit Value
    90,                      !- Upper Limit Value
    CONTINUOUS;              !- Numeric Type

  ScheduleTypeLimits,
    Number;                  !- Name

! ***ALWAYS ON SCHEDULE***

  Schedule:Compact,
    ALWAYS_ON,               !- Name
    On/Off,                  !- Schedule Type Limits Name
    Through: 12/31,          !- Field 1
    For: AllDays,            !- Field 2
    Until: 24:00,1;          !- Field 3

! ***MISC SIMULATION PARAMETERS***

  SurfaceConvectionAlgorithm:Inside,TARP;

  SurfaceConvectionAlgorithm:Outside,DOE-2;

  HeatBalanceAlgorithm,ConductionTransferFunction,200.0000;

  ZoneAirHeatBalanceAlgorithm,
    AnalyticalSolution;      !- Algorithm

  Sizing:Parameters,
    1.2,                     !- Heating Sizing Factor
    1.2,                     !- Cooling Sizing Factor
    6;                       !- Timesteps in Averaging Window

  ConvergenceLimits,
    2,                       !- Minimum System Timestep {minutes}
    25;                      !- Maximum HVAC Iterations

  ShadowCalculation,
    PolygonClipping,         !- Shading Calculation Method
    Periodic,                !- Shading Calculation Update Frequency Method
    7,                       !- Shading Calculation Update Frequency
    15000;                   !- Maximum Figures in Shadow Overlap Calculations

  Timestep,6;

! WeatherFileName=USA_IL_Chicago-OHare_TMY2.epw

  Site:Location,
    USA IL-CHICAGO-OHARE,    !- Name
    41.77,                   !- Latitude {deg}
    -87.75,                  !- Longitude {deg}
    -6.00,                   !- Time Zone {hr}
    190;                     !- Elevation {m}

 ! CHICAGO_IL_USA Annual Heating 99.6%, MaxDB=-20.6°C

  SizingPeriod:DesignDay,
    CHICAGO Ann Htg 99.6% Condns DB,  !- Name
    1,                       !- Month
    21,                      !- Day of Month
    WinterDesignDay,         !- Day Type
    -20.6,                   !- Maximum Dry-Bulb Temperature {C}
    0.0,                     !- Daily Dry-Bulb Temperature Range {deltaC}
    ,                        !- Dry-Bulb Temperature Range Modifier Type
    ,                        !- Dry-Bulb Temperature Range Modifier Day Schedule Name
    Wetbulb,                 !- Humidity Condition Type
    -20.6,                   !- Wetbulb or DewPoint at Maximum Dry-Bulb {C}
    ,                        !- Humidity Condition Day Schedule Name
    ,                        !- Humidity Ratio at Maximum Dry-Bulb {kgWater/kgDryAir}
    ,                        !- Enthalpy at Maximum Dry-Bulb {J/kg}
    ,                        !- Daily Wet-Bulb Temperature Range {deltaC}
    99063.,                  !- Barometric Pressure {Pa}
    4.9,                     !- Wind Speed {m/s}
    270,                     !- Wind Direction {deg}
    No,                      !- Rain Indicator
    No,                      !- Snow Indicator
    No,                      !- Daylight Saving Time Indicator
    ASHRAEClearSky,          !- Solar Model Indicator
    ,                        !- Beam Solar Day Schedule Name
    ,                        !- Diffuse Solar Day Schedule Name
    ,                        !- ASHRAE Clear Sky Optical Depth for Beam Irradiance (taub) {dimensionless}
    ,                        !- ASHRAE Clear Sky Optical Depth for Diffuse Irradiance (taud) {dimensionless}
    0.00;                    !- Sky Clearness

 ! CHICAGO_IL_USA Annual Cooling (WB=>MDB) .4%, MDB=31.2°C WB=25.5°C

  SizingPeriod:DesignDay,
    CHICAGO Ann Clg .4% Condns WB=>MDB,  !- Name
    7,                       !- Month
    21,                      !- Day of Month
    SummerDesignDay,         !- Day Type
    31.2,                    !- Maximum Dry-Bulb Temperature {C}
    10.7,                    !- Daily Dry-Bulb Temperature Range {deltaC}
    ,                        !- Dry-Bulb Temperature Range Modifier Type
    ,                        !- Dry-Bulb Temperature Range Modifier Day Schedule Name
    Wetbulb,                 !- Humidity Condition Type
    25.5,                    !- Wetbulb or DewPoint at Maximum Dry-Bulb {C}
    ,                        !- Humidity Condition Day Schedule Name
    ,                        !- Humidity Ratio at Maximum Dry-Bulb {kgWater/kgDryAir}
    ,                        !- Enthalpy at Maximum Dry-Bulb {J/kg}
    ,                        !- Daily Wet-Bulb Temperature Range {deltaC}
    99063.,                  !- Barometric Pressure {Pa}
    5.3,                     !- Wind Speed {m/s}
    230,                     !- Wind Direction {deg}
    No,                      !- Rain Indicator
    No,                      !- Snow Indicator
    No,                      !- Daylight Saving Time Indicator
    ASHRAEClearSky,          !- Solar Model Indicator
    ,                        !- Beam Solar Day Schedule Name
    ,                        !- Diffuse Solar Day Schedule Name
    ,                        !- ASHRAE Clear Sky Optical Depth for Beam Irradiance (taub) {dimensionless}
    ,                        !- ASHRAE Clear Sky Optical Depth for Diffuse Irradiance (taud) {dimensionless}
    1.00;                    !- Sky Clearness

  Site:WaterMainsTemperature,
    CORRELATION,             !- Calculation Method
    ,                        !- Temperature Schedule Name
    9.69,                    !- Annual Average Outdoor Air Temperature {C}
    28.10;                   !- Maximum Difference In Monthly Average Outdoor Air Temperatures {deltaC}

  Site:GroundTemperature:BuildingSurface,19.527,19.502,19.536,19.598,20.002,21.640,22.225,22.375,21.449,20.121,19.802,19.633;

! ***OPAQUE CONSTRUCTIONS AND MATERIALS***
! Exterior Walls

  Construction,
    Mass Non-res Ext Wall,   !- Name
    1IN Stucco,              !- Outside Layer
    8IN Concrete HW,         !- Layer 2
    Mass NonRes Wall Insulation,  !- Layer 3
    1/2IN Gypsum;            !- Layer 4

  Material,
    Mass NonRes Wall Insulation,  !- Name
    MediumRough,             !- Roughness
    0.0495494599433393,      !- Thickness {m}
    0.049,                   !- Conductivity {W/m-K}
    265.0000,                !- Density {kg/m3}
    836.8000,                !- Specific Heat {J/kg-K}
    0.9000,                  !- Thermal Absorptance
    0.7000,                  !- Solar Absorptance
    0.7000;                  !- Visible Absorptance

! Roof

  Construction,
    Attic Non-res Floor,     !- Name
    1/2IN Gypsum,            !- Outside Layer
    AtticFloor NonRes Insulation,  !- Layer 2
    1/2IN Gypsum;            !- Layer 3

  Construction,
    Attic Non-res Roof,      !- Name
    Roof Membrane,           !- Outside Layer
    Metal Decking;           !- Layer 2

  Material,
    AtticFloor NonRes Insulation,  !- Name
    MediumRough,             !- Roughness
    0.236804989096202,       !- Thickness {m}
    0.049,                   !- Conductivity {W/m-K}
    265.0000,                !- Density {kg/m3}
    836.8000,                !- Specific Heat {J/kg-K}
    0.9000,                  !- Thermal Absorptance
    0.7000,                  !- Solar Absorptance
    0.7000;                  !- Visible Absorptance

! Slab on grade, unheated

  Construction,
    ext-slab,                !- Name
    HW CONCRETE,             !- Outside Layer
    CP02 CARPET PAD;         !- Layer 2

! Interior Walls

  Construction,
    int-walls,               !- Name
    1/2IN Gypsum,            !- Outside Layer
    1/2IN Gypsum;            !- Layer 2

! ***WINDOW/DOOR CONSTRUCTIONS AND MATERIALS***

  Construction,
    Window Non-res Fixed,    !- Name
    NonRes Fixed Assembly Window;  !- Outside Layer

  WindowMaterial:SimpleGlazingSystem,
    NonRes Fixed Assembly Window,  !- Name
    3.23646,                 !- U-Factor {W/m2-K}
    0.39,                    !- Solar Heat Gain Coefficient
    ;                        !- Visible Transmittance

! ***COMMON CONSTRUCTIONS AND MATERIALS***

  Construction,
    InteriorFurnishings,     !- Name
    Std Wood 6inch;          !- Outside Layer

  Material,
    Std Wood 6inch,          !- Name
    MediumSmooth,            !- Roughness
    0.15,                    !- Thickness {m}
    0.12,                    !- Conductivity {W/m-K}
    540.0000,                !- Density {kg/m3}
    1210,                    !- Specific Heat {J/kg-K}
    0.9000000,               !- Thermal Absorptance
    0.7000000,               !- Solar Absorptance
    0.7000000;               !- Visible Absorptance

  Material,
    Wood Siding,             !- Name
    MediumSmooth,            !- Roughness
    0.0100,                  !- Thickness {m}
    0.1100,                  !- Conductivity {W/m-K}
    544.6200,                !- Density {kg/m3}
    1210.0000,               !- Specific Heat {J/kg-K}
    0.9000,                  !- Thermal Absorptance
    0.7800,                  !- Solar Absorptance
    0.7800;                  !- Visible Absorptance

  Material,
    1/2IN Gypsum,            !- Name
    Smooth,                  !- Roughness
    0.0127,                  !- Thickness {m}
    0.1600,                  !- Conductivity {W/m-K}
    784.9000,                !- Density {kg/m3}
    830.0000,                !- Specific Heat {J/kg-K}
    0.9000,                  !- Thermal Absorptance
    0.9200,                  !- Solar Absorptance
    0.9200;                  !- Visible Absorptance

  Material,
    1IN Stucco,              !- Name
    Smooth,                  !- Roughness
    0.0253,                  !- Thickness {m}
    0.6918,                  !- Conductivity {W/m-K}
    1858.0000,               !- Density {kg/m3}
    837.0000,                !- Specific Heat {J/kg-K}
    0.9000,                  !- Thermal Absorptance
    0.9200,                  !- Solar Absorptance
    0.9200;                  !- Visible Absorptance

  Material,
    8IN CONCRETE HW,         !- Name
    Rough,                   !- Roughness
    0.2032,                  !- Thickness {m}
    1.3110,                  !- Conductivity {W/m-K}
    2240.0000,               !- Density {kg/m3}
    836.8000,                !- Specific Heat {J/kg-K}
    0.9000,                  !- Thermal Absorptance
    0.7000,                  !- Solar Absorptance
    0.7000;                  !- Visible Absorptance

  Material,
    Metal Siding,            !- Name
    Smooth,                  !- Roughness
    0.0015,                  !- Thickness {m}
    44.9600,                 !- Conductivity {W/m-K}
    7688.8600,               !- Density {kg/m3}
    410.0000,                !- Specific Heat {J/kg-K}
    0.9000,                  !- Thermal Absorptance
    0.2000,                  !- Solar Absorptance
    0.2000;                  !- Visible Absorptance

  Material,
    HW CONCRETE,             !- Name
    Rough,                   !- Roughness
    0.1016,                  !- Thickness {m}
    1.3110,                  !- Conductivity {W/m-K}
    2240.0000,               !- Density {kg/m3}
    836.8000,                !- Specific Heat {J/kg-K}
    0.9000,                  !- Thermal Absorptance
    0.7000,                  !- Solar Absorptance
    0.7000;                  !- Visible Absorptance

  Material:NoMass,
    CP02 CARPET PAD,         !- Name
    VeryRough,               !- Roughness
    0.2165,                  !- Thermal Resistance {m2-K/W}
    0.9000,                  !- Thermal Absorptance
    0.7000,                  !- Solar Absorptance
    0.8000;                  !- Visible Absorptance

  Material,
    Roof Membrane,           !- Name
    VeryRough,               !- Roughness
    0.0095,                  !- Thickness {m}
    0.1600,                  !- Conductivity {W/m-K}
    1121.2900,               !- Density {kg/m3}
    1460.0000,               !- Specific Heat {J/kg-K}
    0.9000,                  !- Thermal Absorptance
    0.7000,                  !- Solar Absorptance
    0.7000;                  !- Visible Absorptance

  Material,
    Metal Decking,           !- Name
    MediumSmooth,            !- Roughness
    0.0015,                  !- Thickness {m}
    45.0060,                 !- Conductivity {W/m-K}
    7680.0000,               !- Density {kg/m3}
    418.4000,                !- Specific Heat {J/kg-K}
    0.9000,                  !- Thermal Absorptance
    0.7000,                  !- Solar Absorptance
    0.3000;                  !- Visible Absorptance

  Material,
    Metal Roofing,           !- Name
    MediumSmooth,            !- Roughness
    0.0015,                  !- Thickness {m}
    45.0060,                 !- Conductivity {W/m-K}
    7680.0000,               !- Density {kg/m3}
    418.4000,                !- Specific Heat {J/kg-K}
    0.9000,                  !- Thermal Absorptance
    0.7000,                  !- Solar Absorptance
    0.3000;                  !- Visible Absorptance

  Material,
    MAT-CC05 4 HW CONCRETE,  !- Name
    Rough,                   !- Roughness
    0.1016,                  !- Thickness {m}
    1.3110,                  !- Conductivity {W/m-K}
    2240.0000,               !- Density {kg/m3}
    836.8000,                !- Specific Heat {J/kg-K}
    0.9000,                  !- Thermal Absorptance
    0.7000,                  !- Solar Absorptance
    0.7000;                  !- Visible Absorptance

! Acoustic tile for drop ceiling

  Material,
    Std AC02,                !- Name
    MediumSmooth,            !- Roughness
    1.2700000E-02,           !- Thickness {m}
    5.7000000E-02,           !- Conductivity {W/m-K}
    288.0000,                !- Density {kg/m3}
    1339.000,                !- Specific Heat {J/kg-K}
    0.9000000,               !- Thermal Absorptance
    0.7000000,               !- Solar Absorptance
    0.2000000;               !- Visible Absorptance

  Material:NoMass,
    MAT-AIR-WALL,            !- Name
    Rough,                   !- Roughness
    0.2079491,               !- Thermal Resistance {m2-K/W}
    0.9,                     !- Thermal Absorptance
    0.7;                     !- Solar Absorptance

! ZONE LIST:
! Attic
! Core_ZN
! Perimeter_ZN_1
! Perimeter_ZN_2
! Perimeter_ZN_3
! Perimeter_ZN_4
! ***ZONES***

  Zone,
    Attic,                   !- Name
    0.0000,                  !- Direction of Relative North {deg}
    0.0000,                  !- X Origin {m}
    0.0000,                  !- Y Origin {m}
    0.0000,                  !- Z Origin {m}
    1,                       !- Type
    1,                       !- Multiplier
    ,                        !- Ceiling Height {m}
    ,                        !- Volume {m3}
    autocalculate,           !- Floor Area {m2}
    ,                        !- Zone Inside Convection Algorithm
    ,                        !- Zone Outside Convection Algorithm
    No;                      !- Part of Total Floor Area

  Zone,
    Core_ZN,                 !- Name
    0.0000,                  !- Direction of Relative North {deg}
    0.0000,                  !- X Origin {m}
    0.0000,                  !- Y Origin {m}
    0.0000,                  !- Z Origin {m}
    1,                       !- Type
    1,                       !- Multiplier
    ,                        !- Ceiling Height {m}
    ,                        !- Volume {m3}
    autocalculate,           !- Floor Area {m2}
    ,                        !- Zone Inside Convection Algorithm
    ,                        !- Zone Outside Convection Algorithm
    Yes;                     !- Part of Total Floor Area

  Zone,
    Perimeter_ZN_1,          !- Name
    0.0000,                  !- Direction of Relative North {deg}
    0.0000,                  !- X Origin {m}
    0.0000,                  !- Y Origin {m}
    0.0000,                  !- Z Origin {m}
    1,                       !- Type
    1,                       !- Multiplier
    ,                        !- Ceiling Height {m}
    ,                        !- Volume {m3}
    autocalculate,           !- Floor Area {m2}
    ,                        !- Zone Inside Convection Algorithm
    ,                        !- Zone Outside Convection Algorithm
    Yes;                     !- Part of Total Floor Area

  Zone,
    Perimeter_ZN_2,          !- Name
    0.0000,                  !- Direction of Relative North {deg}
    0.0000,                  !- X Origin {m}
    0.0000,                  !- Y Origin {m}
    0.0000,                  !- Z Origin {m}
    1,                       !- Type
    1,                       !- Multiplier
    ,                        !- Ceiling Height {m}
    ,                        !- Volume {m3}
    autocalculate,           !- Floor Area {m2}
    ,                        !- Zone Inside Convection Algorithm
    ,                        !- Zone Outside Convection Algorithm
    Yes;                     !- Part of Total Floor Area

  Zone,
    Perimeter_ZN_3,          !- Name
    0.0000,                  !- Direction of Relative North {deg}
    0.0000,                  !- X Origin {m}
    0.0000,                  !- Y Origin {m}
    0.0000,                  !- Z Origin {m}
    1,                       !- Type
    1,                       !- Multiplier
    ,                        !- Ceiling Height {m}
    ,                        !- Volume {m3}
    autocalculate,           !- Floor Area {m2}
    ,                        !- Zone Inside Convection Algorithm
    ,                        !- Zone Outside Convection Algorithm
    Yes;                     !- Part of Total Floor Area

  Zone,
    Perimeter_ZN_4,          !- Name
    0.0000,                  !- Direction of Relative North {deg}
    0.0000,                  !- X Origin {m}
    0.0000,                  !- Y Origin {m}
    0.0000,                  !- Z Origin {m}
    1,                       !- Type
    1,                       !- Multiplier
    ,                        !- Ceiling Height {m}
    ,                        !- Volume {m3}
    autocalculate,           !- Floor Area {m2}
    ,                        !- Zone Inside Convection Algorithm
    ,                        !- Zone Outside Convection Algorithm
    Yes;                     !- Part of Total Floor Area

! ***WALLS***

  BuildingSurface:Detailed,
    Attic_floor_core,        !- Name
    Floor,                   !- Surface Type
    Attic Non-res Floor,     !- Construction Name
    Attic,                   !- Zone Name
    ,                        !- Space Name
    Surface,                 !- Outside Boundary Condition
    Core_ZN_ceiling,         !- Outside Boundary Condition Object
    NoSun,                   !- Sun Exposure
    NoWind,                  !- Wind Exposure
    AutoCalculate,           !- View Factor to Ground
    4,                       !- Number of Vertices
    5.0000,13.4600,3.0500,  !- X,Y,Z ==> Vertex 1 {m}
    22.6900,13.4600,3.0500,  !- X,Y,Z ==> Vertex 2 {m}
    22.6900,5.0000,3.0500,  !- X,Y,Z ==> Vertex 3 {m}
    5.0000,5.0000,3.0500;  !- X,Y,Z ==> Vertex 4 {m}

  BuildingSurface:Detailed,
    Attic_floor_perimeter_east,  !- Name
    Floor,                   !- Surface Type
    Attic Non-res Floor,     !- Construction Name
    Attic,                   !- Zone Name
    ,                        !- Space Name
    Surface,                 !- Outside Boundary Condition
    Perimeter_ZN_2_ceiling,  !- Outside Boundary Condition Object
    NoSun,                   !- Sun Exposure
    NoWind,                  !- Wind Exposure
    AutoCalculate,           !- View Factor to Ground
    4,                       !- Number of Vertices
    22.6900,5.0000,3.0500,  !- X,Y,Z ==> Vertex 1 {m}
    22.6900,13.4600,3.0500,  !- X,Y,Z ==> Vertex 2 {m}
    27.6900,18.4600,3.0500,  !- X,Y,Z ==> Vertex 3 {m}
    27.6900,0.0000,3.0500;  !- X,Y,Z ==> Vertex 4 {m}

  BuildingSurface:Detailed,
    Attic_floor_perimeter_north,  !- Name
    Floor,                   !- Surface Type
    Attic Non-res Floor,     !- Construction Name
    Attic,                   !- Zone Name
    ,                        !- Space Name
    Surface,                 !- Outside Boundary Condition
    Perimeter_ZN_3_ceiling,  !- Outside Boundary Condition Object
    NoSun,                   !- Sun Exposure
    NoWind,                  !- Wind Exposure
    AutoCalculate,           !- View Factor to Ground
    4,                       !- Number of Vertices
    0.0000,18.4600,3.0500,  !- X,Y,Z ==> Vertex 1 {m}
    27.6900,18.4600,3.0500,  !- X,Y,Z ==> Vertex 2 {m}
    22.6900,13.4600,3.0500,  !- X,Y,Z ==> Vertex 3 {m}
    5.0000,13.4600,3.0500;  !- X,Y,Z ==> Vertex 4 {m}

  BuildingSurface:Detailed,
    Attic_floor_perimeter_south,  !- Name
    Floor,                   !- Surface Type
    Attic Non-res Floor,     !- Construction Name
    Attic,                   !- Zone Name
    ,                        !- Space Name
    Surface,                 !- Outside Boundary Condition
    Perimeter_ZN_1_ceiling,  !- Outside Boundary Condition Object
    NoSun,                   !- Sun Exposure
    NoWind,                  !- Wind Exposure
    AutoCalculate,           !- View Factor to Ground
    4,                       !- Number of Vertices
    0.0000,0.0000,3.0500,  !- X,Y,Z ==> Vertex 1 {m}
    5.0000,5.0000,3.0500,  !- X,Y,Z ==> Vertex 2 {m}
    22.6900,5.0000,3.0500,  !- X,Y,Z ==> Vertex 3 {m}
    27.6900,0.0000,3.0500;  !- X,Y,Z ==> Vertex 4 {m}

  BuildingSurface:Detailed,
    Attic_floor_perimeter_west,  !- Name
    Floor,                   !- Surface Type
    Attic Non-res Floor,     !- Construction Name
    Attic,                   !- Zone Name
    ,                        !- Space Name
    Surface,                 !- Outside Boundary Condition
    Perimeter_ZN_4_ceiling,  !- Outside Boundary Condition Object
    NoSun,                   !- Sun Exposure
    NoWind,                  !- Wind Exposure
    AutoCalculate,           !- View Factor to Ground
    4,                       !- Number of Vertices
    5.0000,13.4600,3.0500,  !- X,Y,Z ==> Vertex 1 {m}
    5.0000,5.0000,3.0500,  !- X,Y,Z ==> Vertex 2 {m}
    0.0000,0.0000,3.0500,  !- X,Y,Z ==> Vertex 3 {m}
    0.0000,18.4600,3.0500;  !- X,Y,Z ==> Vertex 4 {m}

  BuildingSurface:Detailed,
    Attic_roof_east,         !- Name
    Roof,                    !- Surface Type
    Attic Non-res Roof,      !- Construction Name
    Attic,                   !- Zone Name
    ,                        !- Space Name
    Outdoors,                !- Outside Boundary Condition
    ,                        !- Outside Boundary Condition Object
    SunExposed,              !- Sun Exposure
    WindExposed,             !- Wind Exposure
    AutoCalculate,           !- View Factor to Ground
    3,                       !- Number of Vertices
    28.2900,-0.6000,3.0500,  !- X,Y,Z ==> Vertex 1 {m}
    28.2900,19.0600,3.0500,  !- X,Y,Z ==> Vertex 2 {m}
    18.4600,9.2300,6.3300;  !- X,Y,Z ==> Vertex 3 {m}

  BuildingSurface:Detailed,
    Attic_roof_north,        !- Name
    Roof,                    !- Surface Type
    Attic Non-res Roof,      !- Construction Name
    Attic,                   !- Zone Name
    ,                        !- Space Name
    Outdoors,                !- Outside Boundary Condition
    ,                        !- Outside Boundary Condition Object