!-Generator IDFEditor 1.34
!-Option OriginalOrderTop UseSpecialFormat
!-NOTE: All comments with '!-' are ignored by the IDFEditor and are generated automatically.
!-      Use '!' comments if they need to be retained when using the IDFEditor.
! SmOffPSZ-MultiModeDX.idf
! Basic file description: 2-story, 4 zone small office building plus basement, 1 packaged unit per zone.
!
! Highlights              Illustrates use of multi-mode DX coil (COIL:DX:MultiMode:CoolingEmpirical)
!                         for 2-stage DX with and without enhanced dehumidification option and single zone
!                         heating/cooling set point managers (SET POINT MANAGER:SINGLE ZONE HEATING and COOLING).
!
! Simulation Location/Run: CHICAGO_IL_USA TMY2-94846, 2 design days, 3 run periods,
!                          Run Control executes the run periods using the weather file
!
! Location:                Chicago, IL
!
! Design Days:             CHICAGO_IL_USA Annual Heating 99% Design Conditions DB, MaxDB= -17.3°C
!                          CHICAGO_IL_USA Annual Cooling 1% Design Conditions, MaxDB=  31.5°C MCWB=  23.0°C
!
! Run Period (Weather File): Winter 1/1-7, Spring 4/1-7, Summer 7/1-7, CHICAGO_IL_USA TMY2-94846
!
! Run Control:             No Zone or System sizing required, run 3 weather file weeks (no design days run)
!
! Building:                Square 2 story building plus basement. Each floor has 2 thermal zones:
!                          one north facing, the other south facing. Each floor is about 3330
!                          square feet. Windows run the length of each facade. The window to
!                          wall ratio is 0.2. The walls are stone, insulation, air-space, and
!                          gyp-board. The roof is built-up roofing, 4" conc., insulation,
!                          air-space,and accoustic tile. The floors are 4" light-weight conc.,
!                          pad, and carpet. The windows are Dbl LoE (e2=.1) Clr 6mm/6mm Air.
!                          Furniture is modeled as 8 inches of wood covering 1/2 the floor
!                          area. There is an unconditioned basement with a heat source representing
!                          the equipment room..
!
! Floor Area:        618.7 m2 (6658 ft2) conditioned space plus 309.4 m2 (3329 ft2) basement
!
! Number of Stories: 2
!
! Internal: People, equipment, and lighting all at approximately "normal"
!           levels and schedules.
!
! System:   Each zone (basement is unconditioned but has a heat source) is
!           seved by a packaged simgle zone system consisting of an outside
!           air economizer, DX coil, gas heating coil, and draw through supply
!           air fan. There is night set up and setback. The fans are scheduled
!           off at night. The thermostat is dual setpoint with deadband.
!           Air Loop 1 (serving zone ZSF1) uses COIL:DX:MultiMode:CoolingEmpirical
!             to model a 2-stage DX coil with no humidity control
!             Air loop 1 also uses SET POINT MANAGER:SINGLE ZONE HEATING and COOLING
!             instead of SET POINT MANAGER:SINGLE ZONE REHEAT.
!           Air Loop 2 (serving zone ZNF1) uses COIL:DX:MultiMode:CoolingEmpirical
!             to model a 2-stage DX coil with a subcool-reheat mode for enhanced
!             dehumidification.
!           Air Loop 3 (serving zone ZSF2) uses COIL:DX:MultiMode:CoolingEmpirical
!             to model a 1-stage DX coil with no humidity control (equivalent to
!             the Coil:Cooling:DX:SingleSpeed model used in SmOffPSZ).
!           Air Loop 4 (serving zone ZNF2) uses Coil:Cooling:DX:SingleSpeed,
!             the same as in SmOffPSZ.
!

  Version,24.1;

  Building,
    Small Office,            !- Name
    0,                       !- North Axis {deg}
    City,                    !- Terrain
    0.04,                    !- Loads Convergence Tolerance Value {W}
    0.4,                     !- Temperature Convergence Tolerance Value {deltaC}
    FullInteriorAndExterior, !- Solar Distribution
    25,                      !- Maximum Number of Warmup Days
    6;                       !- Minimum Number of Warmup Days

  Timestep,4;

  SurfaceConvectionAlgorithm:Inside,Simple;

  SurfaceConvectionAlgorithm:Outside,DOE-2;

  HeatBalanceAlgorithm,ConductionTransferFunction;

  SimulationControl,
    No,                      !- Do Zone Sizing Calculation
    No,                      !- Do System Sizing Calculation
    No,                      !- Do Plant Sizing Calculation
    No,                      !- Run Simulation for Sizing Periods
    Yes,                     !- Run Simulation for Weather File Run Periods
    No,                      !- Do HVAC Sizing Simulation for Sizing Periods
    1;                       !- Maximum Number of HVAC Sizing Simulation Passes

  RunPeriod,
    Run Period 1,            !- Name
    1,                       !- Begin Month
    1,                       !- Begin Day of Month
    ,                        !- Begin Year
    1,                       !- End Month
    7,                       !- End Day of Month
    ,                        !- End Year
    Tuesday,                 !- Day of Week for Start Day
    Yes,                     !- Use Weather File Holidays and Special Days
    Yes,                     !- Use Weather File Daylight Saving Period
    No,                      !- Apply Weekend Holiday Rule
    Yes,                     !- Use Weather File Rain Indicators
    Yes;                     !- Use Weather File Snow Indicators

  RunPeriod,
    Run Period 2,            !- Name
    4,                       !- Begin Month
    1,                       !- Begin Day of Month
    ,                        !- Begin Year
    4,                       !- End Month
    7,                       !- End Day of Month
    ,                        !- End Year
    Tuesday,                 !- Day of Week for Start Day
    Yes,                     !- Use Weather File Holidays and Special Days
    Yes,                     !- Use Weather File Daylight Saving Period
    No,                      !- Apply Weekend Holiday Rule
    Yes,                     !- Use Weather File Rain Indicators
    Yes;                     !- Use Weather File Snow Indicators

  RunPeriod,
    Run Period 3,            !- Name
    7,                       !- Begin Month
    1,                       !- Begin Day of Month
    ,                        !- Begin Year
    7,                       !- End Month
    7,                       !- End Day of Month
    ,                        !- End Year
    Tuesday,                 !- Day of Week for Start Day
    Yes,                     !- Use Weather File Holidays and Special Days
    Yes,                     !- Use Weather File Daylight Saving Period
    No,                      !- Apply Weekend Holiday Rule
    Yes,                     !- Use Weather File Rain Indicators
    Yes;                     !- Use Weather File Snow Indicators

  Site:Location,
    CHICAGO_IL_USA TMY2-94846,  !- Name
    41.78,                   !- Latitude {deg}
    -87.75,                  !- Longitude {deg}
    -6.00,                   !- Time Zone {hr}
    190.00;                  !- Elevation {m}

! CHICAGO_IL_USA Annual Heating 99% Design Conditions DB, MaxDB= -17.3°C

  SizingPeriod:DesignDay,
    CHICAGO_IL_USA Annual Heating 99% Design Conditions DB,  !- Name
    1,                       !- Month
    21,                      !- Day of Month
    WinterDesignDay,         !- Day Type
    -17.3,                   !- Maximum Dry-Bulb Temperature {C}
    0.0,                     !- Daily Dry-Bulb Temperature Range {deltaC}
    ,                        !- Dry-Bulb Temperature Range Modifier Type
    ,                        !- Dry-Bulb Temperature Range Modifier Day Schedule Name
    Wetbulb,                 !- Humidity Condition Type
    -17.3,                   !- Wetbulb or DewPoint at Maximum Dry-Bulb {C}
    ,                        !- Humidity Condition Day Schedule Name
    ,                        !- Humidity Ratio at Maximum Dry-Bulb {kgWater/kgDryAir}
    ,                        !- Enthalpy at Maximum Dry-Bulb {J/kg}
    ,                        !- Daily Wet-Bulb Temperature Range {deltaC}
    99063.,                  !- Barometric Pressure {Pa}
    4.9,                     !- Wind Speed {m/s}
    270,                     !- Wind Direction {deg}
    No,                      !- Rain Indicator
    No,                      !- Snow Indicator
    No,                      !- Daylight Saving Time Indicator
    ASHRAEClearSky,          !- Solar Model Indicator
    ,                        !- Beam Solar Day Schedule Name
    ,                        !- Diffuse Solar Day Schedule Name
    ,                        !- ASHRAE Clear Sky Optical Depth for Beam Irradiance (taub) {dimensionless}
    ,                        !- ASHRAE Clear Sky Optical Depth for Diffuse Irradiance (taud) {dimensionless}
    0.0;                     !- Sky Clearness

! CHICAGO_IL_USA Annual Cooling 1% Design Conditions, MaxDB=  31.5°C MCWB=  23.0°C

  SizingPeriod:DesignDay,
    CHICAGO_IL_USA Annual Cooling 1% Design Conditions DB/MCWB,  !- Name
    7,                       !- Month
    21,                      !- Day of Month
    SummerDesignDay,         !- Day Type
    31.5,                    !- Maximum Dry-Bulb Temperature {C}
    10.7,                    !- Daily Dry-Bulb Temperature Range {deltaC}
    ,                        !- Dry-Bulb Temperature Range Modifier Type
    ,                        !- Dry-Bulb Temperature Range Modifier Day Schedule Name
    Wetbulb,                 !- Humidity Condition Type
    23.0,                    !- Wetbulb or DewPoint at Maximum Dry-Bulb {C}
    ,                        !- Humidity Condition Day Schedule Name
    ,                        !- Humidity Ratio at Maximum Dry-Bulb {kgWater/kgDryAir}
    ,                        !- Enthalpy at Maximum Dry-Bulb {J/kg}
    ,                        !- Daily Wet-Bulb Temperature Range {deltaC}
    99063.,                  !- Barometric Pressure {Pa}
    5.3,                     !- Wind Speed {m/s}
    230,                     !- Wind Direction {deg}
    No,                      !- Rain Indicator
    No,                      !- Snow Indicator
    No,                      !- Daylight Saving Time Indicator
    ASHRAEClearSky,          !- Solar Model Indicator
    ,                        !- Beam Solar Day Schedule Name
    ,                        !- Diffuse Solar Day Schedule Name
    ,                        !- ASHRAE Clear Sky Optical Depth for Beam Irradiance (taub) {dimensionless}
    ,                        !- ASHRAE Clear Sky Optical Depth for Diffuse Irradiance (taud) {dimensionless}
    1.0;                     !- Sky Clearness

  Site:GroundTemperature:BuildingSurface,20.03,20.03,20.13,20.30,20.43,20.52,20.62,20.77,20.78,20.55,20.44,20.20;

  Material,
    ST01,                    !- Name
    MediumRough,             !- Roughness
    0.0254,                  !- Thickness {m}
    1.802,                   !- Conductivity {W/m-K}
    2243,                    !- Density {kg/m3}
    837,                     !- Specific Heat {J/kg-K}
    0.9,                     !- Thermal Absorptance
    0.65,                    !- Solar Absorptance
    0.65;                    !- Visible Absorptance

  Material:NoMass,
    IN-W,                    !- Name
    Rough,                   !- Roughness
    1.109493017,             !- Thermal Resistance {m2-K/W}
    0.65,                    !- Thermal Absorptance
    0.65,                    !- Solar Absorptance
    0.65;                    !- Visible Absorptance

  Material,
    GP02,                    !- Name
    MediumSmooth,            !- Roughness
    0.015900001,             !- Thickness {m}
    0.16,                    !- Conductivity {W/m-K}
    801,                     !- Density {kg/m3}
    837,                     !- Specific Heat {J/kg-K}
    0.9,                     !- Thermal Absorptance
    0.75,                    !- Solar Absorptance
    0.75;                    !- Visible Absorptance

  Material,
    BR01,                    !- Name
    VeryRough,               !- Roughness
    0.0094999997,            !- Thickness {m}
    0.162,                   !- Conductivity {W/m-K}
    1121,                    !- Density {kg/m3}
    1464,                    !- Specific Heat {J/kg-K}
    0.9,                     !- Thermal Absorptance
    0.7,                     !- Solar Absorptance
    0.7;                     !- Visible Absorptance

  Material,
    CC24,                    !- Name
    MediumRough,             !- Roughness
    0.1016,                  !- Thickness {m}
    0.36,                    !- Conductivity {W/m-K}
    1282,                    !- Density {kg/m3}
    837,                     !- Specific Heat {J/kg-K}
    0.9,                     !- Thermal Absorptance
    0.65,                    !- Solar Absorptance
    0.65;                    !- Visible Absorptance

  Material:NoMass,
    IN-R,                    !- Name
    Rough,                   !- Roughness
    2.342262983,             !- Thermal Resistance {m2-K/W}
    0.65,                    !- Thermal Absorptance
    0.65,                    !- Solar Absorptance
    0.65;                    !- Visible Absorptance

  Material,
    AC02,                    !- Name
    MediumSmooth,            !- Roughness
    0.0127,                  !- Thickness {m}
    0.057,                   !- Conductivity {W/m-K}
    288,                     !- Density {kg/m3}
    1339,                    !- Specific Heat {J/kg-K}
    0.9,                     !- Thermal Absorptance
    0.7,                     !- Solar Absorptance
    0.7;                     !- Visible Absorptance

  Material:NoMass,
    CP01,                    !- Name
    Rough,                   !- Roughness
    0.367,                   !- Thermal Resistance {m2-K/W}
    0.9,                     !- Thermal Absorptance
    0.75,                    !- Solar Absorptance
    0.75;                    !- Visible Absorptance

  Material,
    SOIL,                    !- Name
    Rough,                   !- Roughness
    0.609600067,             !- Thickness {m}
    1.730800033,             !- Conductivity {W/m-K}
    1842.069946289,          !- Density {kg/m3}
    1088.568091,             !- Specific Heat {J/kg-K}
    0.65,                    !- Thermal Absorptance
    0.65,                    !- Solar Absorptance
    0.65;                    !- Visible Absorptance

  Material,
    CC15,                    !- Name
    MediumRough,             !- Roughness
    0.1524,                  !- Thickness {m}
    1.802,                   !- Conductivity {W/m-K}
    2243,                    !- Density {kg/m3}
    837,                     !- Specific Heat {J/kg-K}
    0.9,                     !- Thermal Absorptance
    0.65,                    !- Solar Absorptance
    0.65;                    !- Visible Absorptance

  Material,
    WD10,                    !- Name
    MediumSmooth,            !- Roughness
    0.667,                   !- Thickness {m}
    0.115,                   !- Conductivity {W/m-K}
    513,                     !- Density {kg/m3}
    1381,                    !- Specific Heat {J/kg-K}
    0.9,                     !- Thermal Absorptance
    0.78,                    !- Solar Absorptance
    0.78;                    !- Visible Absorptance

  Material:AirGap,
    AL21,                    !- Name
    0.157;                   !- Thermal Resistance {m2-K/W}

  Material:AirGap,
    AL33,                    !- Name
    0.162;                   !- Thermal Resistance {m2-K/W}

  WindowMaterial:Glazing,
    CLEAR 6MM,               !- Name
    SpectralAverage,         !- Optical Data Type
    ,                        !- Window Glass Spectral Data Set Name
    0.006,                   !- Thickness {m}
    0.775,                   !- Solar Transmittance at Normal Incidence
    0.071,                   !- Front Side Solar Reflectance at Normal Incidence
    0.071,                   !- Back Side Solar Reflectance at Normal Incidence
    0.881,                   !- Visible Transmittance at Normal Incidence
    0.08,                    !- Front Side Visible Reflectance at Normal Incidence
    0.08,                    !- Back Side Visible Reflectance at Normal Incidence
    0,                       !- Infrared Transmittance at Normal Incidence
    0.84,                    !- Front Side Infrared Hemispherical Emissivity
    0.84,                    !- Back Side Infrared Hemispherical Emissivity
    0.9;                     !- Conductivity {W/m-K}

  WindowMaterial:Glazing,
    LoE CLEAR 6MM,           !- Name
    SpectralAverage,         !- Optical Data Type
    ,                        !- Window Glass Spectral Data Set Name
    0.006,                   !- Thickness {m}
    0.600,                   !- Solar Transmittance at Normal Incidence
    0.170,                   !- Front Side Solar Reflectance at Normal Incidence
    0.220,                   !- Back Side Solar Reflectance at Normal Incidence
    0.840,                   !- Visible Transmittance at Normal Incidence
    0.055,                   !- Front Side Visible Reflectance at Normal Incidence
    0.078,                   !- Back Side Visible Reflectance at Normal Incidence
    0.0,                     !- Infrared Transmittance at Normal Incidence
    0.84,                    !- Front Side Infrared Hemispherical Emissivity
    0.10,                    !- Back Side Infrared Hemispherical Emissivity
    0.9;                     !- Conductivity {W/m-K}

  WindowMaterial:Gas,
    AIR 6MM,                 !- Name
    Air,                     !- Gas Type
    .0063;                   !- Thickness {m}

  Construction,
    Dbl LoE (e2=.1) Clr 6mm/6mm Air,  !- Name
    LoE CLEAR 6MM,           !- Outside Layer
    AIR 6MM,                 !- Layer 2
    CLEAR 6MM;               !- Layer 3

  Construction,
    WALLR,                   !- Name
    ST01,                    !- Outside Layer
    IN-W,                    !- Layer 2
    AL21,                    !- Layer 3
    GP02;                    !- Layer 4

  Construction,
    ROOFR,                   !- Name
    BR01,                    !- Outside Layer
    CC24,                    !- Layer 2
    IN-R,                    !- Layer 3
    AL33,                    !- Layer 4
    AC02;                    !- Layer 5

  Construction,
    FLOORR,                  !- Name
    CC24,                    !- Outside Layer
    CP01;                    !- Layer 2

  Construction,
    reverseFLOORR,           !- Name
    CP01,                    !- Outside Layer
    CC24;                    !- Layer 2

  Construction,
    SLABL,                   !- Name
    CC15;                    !- Outside Layer

  Construction,
    UNDRWALL,                !- Name
    CC24;                    !- Outside Layer

  Construction,
    FURNITURE,               !- Name
    WD10;                    !- Outside Layer

  Construction,
    INTWALL-1,               !- Name
    GP02,                    !- Outside Layer
    AL21,                    !- Layer 2
    GP02;                    !- Layer 3

! original origin (0,0,0)

  Zone,
    ZSF1,                    !- Name
    0,                       !- Direction of Relative North {deg}
    0,                       !- X Origin {m}
    0,                       !- Y Origin {m}
    0,                       !- Z Origin {m}
    1,                       !- Type
    1,                       !- Multiplier
    autocalculate,           !- Ceiling Height {m}
    autocalculate;           !- Volume {m3}

! original origin (0,8.794457436,0)

  Zone,
    ZNF1,                    !- Name
    0,                       !- Direction of Relative North {deg}
    0,                       !- X Origin {m}
    0,                       !- Y Origin {m}
    0,                       !- Z Origin {m}
    1,                       !- Type
    1,                       !- Multiplier
    autocalculate,           !- Ceiling Height {m}
    autocalculate;           !- Volume {m3}

! original origin (0,0,3.352800369)

  Zone,
    ZSF2,                    !- Name
    0,                       !- Direction of Relative North {deg}
    0,                       !- X Origin {m}
    0,                       !- Y Origin {m}
    0,                       !- Z Origin {m}
    1,                       !- Type
    1,                       !- Multiplier
    autocalculate,           !- Ceiling Height {m}
    autocalculate;           !- Volume {m3}

! original origin (0,8.794457436,0)

  Zone,
    ZNF2,                    !- Name
    0,                       !- Direction of Relative North {deg}
    0,                       !- X Origin {m}
    0,                       !- Y Origin {m}
    0,                       !- Z Origin {m}
    1,                       !- Type
    1,                       !- Multiplier
    autocalculate,           !- Ceiling Height {m}
    autocalculate;           !- Volume {m3}

! original origin (0,0,-2.438400269)

  Zone,
    BASE-1,                  !- Name
    0,                       !- Direction of Relative North {deg}
    0,                       !- X Origin {m}
    0,                       !- Y Origin {m}
    0,                       !- Z Origin {m}
    1,                       !- Type
    1,                       !- Multiplier
    autocalculate,           !- Ceiling Height {m}
    autocalculate;           !- Volume {m3}

  GlobalGeometryRules,
    LowerLeftCorner,         !- Starting Vertex Position
    CounterClockWise,        !- Vertex Entry Direction
    World;                   !- Coordinate System

                                        !- X,Y,Z  3 {m}

  BuildingSurface:Detailed,
    EWall,                   !- Name
    WALL,                    !- Surface Type
    WALLR,                   !- Construction Name
    ZSF1,                    !- Zone Name
    ,                        !- Space Name
    Outdoors,                !- Outside Boundary Condition
    ,                        !- Outside Boundary Condition Object
    SunExposed,              !- Sun Exposure
    WindExposed,             !- Wind Exposure
    0.5,                     !- View Factor to Ground
    4,                       !- Number of Vertices
    17.588914871,0,0,  !- X,Y,Z ==> Vertex 1 {m}
    17.588914871,8.794457436,0,  !- X,Y,Z ==> Vertex 2 {m}
    17.588914871,8.794457436,3.352800369,  !- X,Y,Z ==> Vertex 3 {m}
    17.588914871,0,3.352800369;  !- X,Y,Z ==> Vertex 4 {m}

  BuildingSurface:Detailed,
    SWall,                   !- Name
    WALL,                    !- Surface Type
    WALLR,                   !- Construction Name
    ZSF1,                    !- Zone Name
    ,                        !- Space Name
    Outdoors,                !- Outside Boundary Condition
    ,                        !- Outside Boundary Condition Object
    SunExposed,              !- Sun Exposure
    WindExposed,             !- Wind Exposure
    0.5,                     !- View Factor to Ground
    4,                       !- Number of Vertices
    0,0,0,  !- X,Y,Z ==> Vertex 1 {m}
    17.588914871,0,0,  !- X,Y,Z ==> Vertex 2 {m}
    17.588914871,0,3.352800369,  !- X,Y,Z ==> Vertex 3 {m}
    0,0,3.352800369;  !- X,Y,Z ==> Vertex 4 {m}

  BuildingSurface:Detailed,
    WWall,                   !- Name
    WALL,                    !- Surface Type
    WALLR,                   !- Construction Name
    ZSF1,                    !- Zone Name
    ,                        !- Space Name
    Outdoors,                !- Outside Boundary Condition
    ,                        !- Outside Boundary Condition Object
    SunExposed,              !- Sun Exposure
    WindExposed,             !- Wind Exposure
    0.5,                     !- View Factor to Ground
    4,                       !- Number of Vertices
    0,8.794457436,0,  !- X,Y,Z ==> Vertex 1 {m}
    0,0,0,  !- X,Y,Z ==> Vertex 2 {m}
    0,0,3.352800369,  !- X,Y,Z ==> Vertex 3 {m}
    0,8.794457436,3.352800369;  !- X,Y,Z ==> Vertex 4 {m}

                                        !- X,Y,Z  3 {m}

  BuildingSurface:Detailed,
    zE-W-5,                  !- Name
    WALL,                    !- Surface Type
    WALLR,                   !- Construction Name
    ZNF1,                    !- Zone Name
    ,                        !- Space Name
    Outdoors,                !- Outside Boundary Condition
    ,                        !- Outside Boundary Condition Object
    SunExposed,              !- Sun Exposure
    WindExposed,             !- Wind Exposure
    0.5,                     !- View Factor to Ground
    4,                       !- Number of Vertices
    17.588914871,8.794457436,0,  !- X,Y,Z ==> Vertex 1 {m}
    17.588914871,17.588914871,0,  !- X,Y,Z ==> Vertex 2 {m}
    17.588914871,17.588914871,3.352800369,  !- X,Y,Z ==> Vertex 3 {m}
    17.588914871,8.794457436,3.352800369;  !- X,Y,Z ==> Vertex 4 {m}

  BuildingSurface:Detailed,
    IntWall-F1,              !- Name
    Wall,                    !- Surface Type
    INTWALL-1,               !- Construction Name
    ZNF1,                    !- Zone Name
    ,                        !- Space Name
    Zone,                    !- Outside Boundary Condition
    ZSF1,                    !- Outside Boundary Condition Object
    NoSun,                   !- Sun Exposure
    NoWind,                  !- Wind Exposure
    0.5,                     !- View Factor to Ground
    4,                       !- Number of Vertices
    0,8.794457436,3.352800369,  !- X,Y,Z ==> Vertex 1 {m}
    0,8.794457436,0,  !- X,Y,Z ==> Vertex 2 {m}
    17.588914871,8.794457436,0,  !- X,Y,Z ==> Vertex 3 {m}
    17.588914871,8.794457436,3.352800369;  !- X,Y,Z ==> Vertex 4 {m}

  BuildingSurface:Detailed,
    IntWall-F2,              !- Name
    Wall,                    !- Surface Type
    INTWALL-1,               !- Construction Name
    ZNF2,                    !- Zone Name
    ,                        !- Space Name
    Zone,                    !- Outside Boundary Condition
    ZSF2,                    !- Outside Boundary Condition Object
    NoSun,                   !- Sun Exposure
    NoWind,                  !- Wind Exposure
    0.5,                     !- View Factor to Ground
    4,                       !- Number of Vertices
    0,8.794457436,6.705600738,  !- X,Y,Z ==> Vertex 1 {m}
    0,8.794457436,3.352800369,  !- X,Y,Z ==> Vertex 2 {m}
    17.588914871,8.794457436,3.352800369,  !- X,Y,Z ==> Vertex 3 {m}
    17.588914871,8.794457436,6.705600738;  !- X,Y,Z ==> Vertex 4 {m}

  BuildingSurface:Detailed,
    NWall,                   !- Name
    WALL,                    !- Surface Type
    WALLR,                   !- Construction Name
    ZNF1,                    !- Zone Name
    ,                        !- Space Name
    Outdoors,                !- Outside Boundary Condition
    ,                        !- Outside Boundary Condition Object
    SunExposed,              !- Sun Exposure
    WindExposed,             !- Wind Exposure
    0.5,                     !- View Factor to Ground
    4,                       !- Number of Vertices
    17.588914871,17.588914871,0,  !- X,Y,Z ==> Vertex 1 {m}
    0,17.588914871,0,  !- X,Y,Z ==> Vertex 2 {m}
    0,17.588914871,3.352800369,  !- X,Y,Z ==> Vertex 3 {m}
    17.588914871,17.588914871,3.352800369;  !- X,Y,Z ==> Vertex 4 {m}

                                        !- X,Y,Z  4 {m}

  BuildingSurface:Detailed,
    zE-W-8,                  !- Name
    WALL,                    !- Surface Type
    WALLR,                   !- Construction Name
    ZNF1,                    !- Zone Name
    ,                        !- Space Name
    Outdoors,                !- Outside Boundary Condition
    ,                        !- Outside Boundary Condition Object
    SunExposed,              !- Sun Exposure
    WindExposed,             !- Wind Exposure
    0.5,                     !- View Factor to Ground
    4,                       !- Number of Vertices
    0,17.588914871,0,  !- X,Y,Z ==> Vertex 1 {m}
    0,8.794457436,0,  !- X,Y,Z ==> Vertex 2 {m}
    0,8.794457436,3.352800369,  !- X,Y,Z ==> Vertex 3 {m}
    0,17.588914871,3.352800369;  !- X,Y,Z ==> Vertex 4 {m}

                                        !- X,Y,Z  2 {m}
                                        !- X,Y,Z  3 {m}

  BuildingSurface:Detailed,
    zE-W-11,                 !- Name
    WALL,                    !- Surface Type
    WALLR,                   !- Construction Name
    ZSF2,                    !- Zone Name
    ,                        !- Space Name
    Outdoors,                !- Outside Boundary Condition
    ,                        !- Outside Boundary Condition Object
    SunExposed,              !- Sun Exposure
    WindExposed,             !- Wind Exposure
    0.5,                     !- View Factor to Ground
    4,                       !- Number of Vertices
    17.588914871,0,3.352800369,  !- X,Y,Z ==> Vertex 1 {m}
    17.588914871,8.794457436,3.352800369,  !- X,Y,Z ==> Vertex 2 {m}
    17.588914871,8.794457436,6.705600738,  !- X,Y,Z ==> Vertex 3 {m}
    17.588914871,0,6.705600738;  !- X,Y,Z ==> Vertex 4 {m}

  BuildingSurface:Detailed,
    zE-W-13,                 !- Name
    WALL,                    !- Surface Type
    WALLR,                   !- Construction Name
    ZSF2,                    !- Zone Name
    ,                        !- Space Name
    Outdoors,                !- Outside Boundary Condition
    ,                        !- Outside Boundary Condition Object
    SunExposed,              !- Sun Exposure
    WindExposed,             !- Wind Exposure
    0.5,                     !- View Factor to Ground
    4,                       !- Number of Vertices
    0,0,3.352800369,  !- X,Y,Z ==> Vertex 1 {m}
    17.588914871,0,3.352800369,  !- X,Y,Z ==> Vertex 2 {m}
    17.588914871,0,6.705600738,  !- X,Y,Z ==> Vertex 3 {m}
    0,0,6.705600738;  !- X,Y,Z ==> Vertex 4 {m}

  BuildingSurface:Detailed,
    zE-W-15,                 !- Name