!-Generator IDFEditor 1.34
!-Option SortedOrder UseSpecialFormat
!-NOTE: All comments with '!-' are ignored by the IDFEditor and are generated automatically.
!-      Use '!' comments if they need to be retained when using the IDFEditor.
!-   ===========  ALL OBJECTS IN CLASS: VERSION ===========
!SuperMarket_DetailedEvapCondenser.idf
!
! Supermarket_EvapCondenser.idf
! Basic file description: 1 story building divided into 2 interior conditioned zones. Roof with no plenum.
!                         Floor in contact with the ground.
!
! Highlights:             Example of refrigerated display cases and detailed refrigeration systems using evaporative condenser cooling.
!
! Refrigeration:          (compressor location) Rack name:           Display case names on rack:
!                         Rack   (indoors) :    SelfContainedDisplay SelfContainedDisplayCase (located in zone SalesFloor)
!                         Detailed (outdoors):  MediumTempSystem     FishDisplayCase
!                                                                    MeatDisplayCase
!                                                                    MultiDeckDairyAndDeliCase
!                         Detailed (outdoors):  LowTempSystem        OpenWellIceCreamDisplayCase
!                                                                    GlassDoorFrozenFood
!                                                                    WalkInFreezer
!
! Display Case
! Configuration:   Refrigerated cases configured to represent actual performance of medium and low temp cases.
!                  Self contained display case representative of "plug-in" type case with attached
!                  compressor and condenser section.  Condenser heat for this case is rejected to the zone.
!                  GlassDoorFrozenFood case has a large defrost demand and is therefore broken down into three
!                  identical cases with offset defrost timing.
! Walk In
! Configuration:   Walk-in cooler is modeled using door-opening and stocking schedules.
! Evaporative Condenser
! Description:     Evaporative condensers are provided to reduce the condensing temperature during hot-weather operation.
!                  To avoid icing problems during winter weather, the evaporative feature is only available from Mar 15
!                  to December 1.  During the winter, the condensers operate in a dry mode using cold outside air.
!
! Simulation Location/Run: USA_FL_Phoenix-Sky.Harbor.Intl.AP.722780_TMY3, 2 design days, 2 run periods,
!                          Run Control executes the run periods, design days are not simulated.
!
! Location:                Phoenix, AZ USA
!
! Design Days:             PHOENIX_AZ_USA Annual Heating 99.6%, MaxDB=3.7°C
!                          PHOENIX_AZ_USA Annual Cooling (DB=>MWB) .4%, MaxDB=43.4°C MWB=21.1°C
!
! Run Period (Weather File): Winter 1/14, Summer 7/7, USA_FL_Phoenix-Sky.Harbor.Intl.AP.722780_TMY3
!
! Run Control:             No Zone or System sizing required. Simulation uses weather file for run periods.
!
! Building: Single floor rectangular building 150 ft x 150 ft, zone height 14 feet. FaceBrkIns4LWConcBlkGyp_R-11
!           There is 1 door and 2 windows at the front of the building. The exterior walls are Face brick with
!           R-11 insulation and concrete block with gypsum board on the interior surface. Partions wall is 8" concrete
!           block covered with gypsum board on each surface. The roof is a built up roof with 1/2 in slag over 3/8 in
!           felt and membrane with R-11 insulation over 6 in lightweight concrete, an air gap separates the interior
!           acoustical tiles. The windows are single pane 6mm clear and double pane 6mm clear with 6mm air gap.
!           The window to wall ratio is approximately 0.0016.
!
!           The building is oriented due north with front of building facing east.
!
! Floor Area:        2090.1  m2 (22,500 ft2)
! Number of Stories: 1
!
! Zone Description Details:
!
!       (0,0,0)                           (0,45.718,0)
!           ____________________________________
!          |                                   |
!          |             Backroom              |
!          |___________________________________|
!          |(4.572,0,0)        (4.572,45.718,0)|
!          |                                   |
!          |                                   |
!          |                                   |
!          |                                   |
!          |                                   |
!          |            Salesfloor             |      ---> N
!          |                                   |
!          |                                   |
!          |                                   |
!          |                                   |      door = --
!          |                                   |    window = *
!          |                                   |
!          |                                   |
!          |                                   |
!          |__________--______*____*****_______|
!
!     (45.718,0,0)                    (45.718,45.718,0)
!
! Internal gains description:     ZONE Backroom    - lighting is 1500 watts, equip is 150 watts, 10 occupants
!                                 ZONE SalesFloor  - lighting is 45000 watts, equip is 17100 watts, 100 occupants
!                                 Above includes Front Sales Register equipment included at 1.5 Kw. Sales floor misc.
!                                 equipment at 600 W. Bakery equipment at 15 Kw. Backroom misc. equipment at 150 W.
!
! Interzone Surfaces:             1 interzone surface (see diagram)
! Internal Mass:                  Yes, 1880 m2 simulating product
! People:                         110
! Lights:                         46500 W
! Equipment:                      17250 W
! Windows:                        2 - single pane clear 6mm glass and double pane 6mm with 6mm air gap
! Detached Shading:               None
! Daylight:                       None
! Natural Ventilation:            None
! Compact Schedules:              Yes
! Solair Distribution:            MinimalShadowing
!
! HVAC:                           Heat/cool furnace with DX coil for cooling, using an air-reheat strategy to keep
!                                 SALESFLOOR zone humidity below a 50% RH setpoint. Outdoor ventilation air is
!                                 introduced through the air loop. Heating up to 22 C during all hours.
!                                 Cooling to 24 C during all hours. Fans and coils scheduled to be available all
!                                 Reheat coil on all year. System configuration is very basic--air loop has a fan,
!                                 cooling coil, and heating coil.
!
!
! Zonal Equipment:                AirTerminal:SingleDuct:Uncontrolled
! Central Air Handling Equipment: Yes
! System Equipment Autosize:      No
! Purchased Cooling:              No
! Purchased Heating:              No
! Purchased Chilled Water:        No
! Purchased Hot Water:            No
! HVAC System:                    AirLoopHVAC:Unitary:Furnace:HeatCool
! Coils:                          Coil:Cooling:DX:SingleSpeed, Coil:Heating:Fuel
! Pumps:                          None
! Boilers:                        None
! Chillers:                       None
! Towers:                         None
!
! Results:
! Standard Reports:               Report:Table:Monthly
! Timestep or Hourly Variables:   Timestep
! Time bins Report:               None
! HTML Report:                    None
! Environmental Emissions:        None
! Utility Tariffs:                None
!

  Version,24.1;

!-   ===========  ALL OBJECTS IN CLASS: SIMULATIONCONTROL ===========

  SimulationControl,
    No,                      !- Do Zone Sizing Calculation
    No,                      !- Do System Sizing Calculation
    No,                      !- Do Plant Sizing Calculation
    No,                      !- Run Simulation for Sizing Periods
    Yes,                     !- Run Simulation for Weather File Run Periods
    No,                      !- Do HVAC Sizing Simulation for Sizing Periods
    1;                       !- Maximum Number of HVAC Sizing Simulation Passes

!-   ===========  ALL OBJECTS IN CLASS: BUILDING ===========

  Building,
    None,                    !- Name
    0,                       !- North Axis {deg}
    Suburbs,                 !- Terrain
    0.04,                    !- Loads Convergence Tolerance Value {W}
    0.4,                     !- Temperature Convergence Tolerance Value {deltaC}
    MinimalShadowing,        !- Solar Distribution
    50,                      !- Maximum Number of Warmup Days
    6;                       !- Minimum Number of Warmup Days

!-   ===========  ALL OBJECTS IN CLASS: SURFACECONVECTIONALGORITHM:INSIDE ===========

  SurfaceConvectionAlgorithm:Inside,TARP;

!-   ===========  ALL OBJECTS IN CLASS: SURFACECONVECTIONALGORITHM:OUTSIDE ===========

  SurfaceConvectionAlgorithm:Outside,DOE-2;

!-   ===========  ALL OBJECTS IN CLASS: HEATBALANCEALGORITHM ===========

  HeatBalanceAlgorithm,ConductionTransferFunction;

!-   ===========  ALL OBJECTS IN CLASS: TIMESTEP ===========

  Timestep,6;

!-   ===========  ALL OBJECTS IN CLASS: SITE:LOCATION ===========

  Site:Location,
    Phoenix Sky Harbor Intl Ap_AZ_USA Design_Conditions,  !- Name
    33.45,                   !- Latitude {deg}
    -111.98,                 !- Longitude {deg}
    -7.00,                   !- Time Zone {hr}
    337.00;                  !- Elevation {m}

!-   ===========  ALL OBJECTS IN CLASS: SIZINGPERIOD:DESIGNDAY ===========
 ! Using Design Conditions from "Climate Design Data 2009 ASHRAE Handbook"
 ! Phoenix Sky Harbor Intl Ap_AZ_USA Extreme Annual Wind Speeds, 1%=8.2m/s, 2.5%=7.1m/s, 5%=5.8m/s
 ! Phoenix Sky Harbor Intl Ap_AZ_USA Extreme Annual Temperatures, Max Drybulb=1.3°C Min Drybulb=45.8°C
 ! Phoenix Sky Harbor Intl Ap_AZ_USA Annual Heating Design Conditions Wind Speed=1.7m/s Wind Dir=100
 ! Coldest Month=DEC
 ! Phoenix Sky Harbor Intl Ap_AZ_USA Annual Heating 99.6%, MaxDB=3.7°C

  SizingPeriod:DesignDay,
    Phoenix Sky Harbor Intl Ap Ann Htg 99.6% Condns DB,  !- Name
    12,                      !- Month
    21,                      !- Day of Month
    WinterDesignDay,         !- Day Type
    3.7,                     !- Maximum Dry-Bulb Temperature {C}
    0.0,                     !- Daily Dry-Bulb Temperature Range {deltaC}
    ,                        !- Dry-Bulb Temperature Range Modifier Type
    ,                        !- Dry-Bulb Temperature Range Modifier Day Schedule Name
    Wetbulb,                 !- Humidity Condition Type
    3.7,                     !- Wetbulb or DewPoint at Maximum Dry-Bulb {C}
    ,                        !- Humidity Condition Day Schedule Name
    ,                        !- Humidity Ratio at Maximum Dry-Bulb {kgWater/kgDryAir}
    ,                        !- Enthalpy at Maximum Dry-Bulb {J/kg}
    ,                        !- Daily Wet-Bulb Temperature Range {deltaC}
    97342.,                  !- Barometric Pressure {Pa}
    1.7,                     !- Wind Speed {m/s}
    100,                     !- Wind Direction {deg}
    No,                      !- Rain Indicator
    No,                      !- Snow Indicator
    No,                      !- Daylight Saving Time Indicator
    ASHRAEClearSky,          !- Solar Model Indicator
    ,                        !- Beam Solar Day Schedule Name
    ,                        !- Diffuse Solar Day Schedule Name
    ,                        !- ASHRAE Clear Sky Optical Depth for Beam Irradiance (taub) {dimensionless}
    ,                        !- ASHRAE Clear Sky Optical Depth for Diffuse Irradiance (taud) {dimensionless}
    0.00;                    !- Sky Clearness

 ! Phoenix Sky Harbor Intl Ap Annual Cooling Design Conditions Wind Speed=4.1m/s Wind Dir=260
 ! Hottest Month=JUL
 ! Phoenix Sky Harbor Intl Ap_AZ_USA Annual Cooling (DB=>MWB) .4%, MaxDB=43.4°C MWB=21.1°C

  SizingPeriod:DesignDay,
    Phoenix Sky Harbor Intl Ap Ann Clg .4% Condns DB=>MWB,  !- Name
    7,                       !- Month
    21,                      !- Day of Month
    SummerDesignDay,         !- Day Type
    43.4,                    !- Maximum Dry-Bulb Temperature {C}
    12,                      !- Daily Dry-Bulb Temperature Range {deltaC}
    ,                        !- Dry-Bulb Temperature Range Modifier Type
    ,                        !- Dry-Bulb Temperature Range Modifier Day Schedule Name
    Wetbulb,                 !- Humidity Condition Type
    21.1,                    !- Wetbulb or DewPoint at Maximum Dry-Bulb {C}
    ,                        !- Humidity Condition Day Schedule Name
    ,                        !- Humidity Ratio at Maximum Dry-Bulb {kgWater/kgDryAir}
    ,                        !- Enthalpy at Maximum Dry-Bulb {J/kg}
    ,                        !- Daily Wet-Bulb Temperature Range {deltaC}
    97342.,                  !- Barometric Pressure {Pa}
    4.1,                     !- Wind Speed {m/s}
    260,                     !- Wind Direction {deg}
    No,                      !- Rain Indicator
    No,                      !- Snow Indicator
    No,                      !- Daylight Saving Time Indicator
    ASHRAEClearSky,          !- Solar Model Indicator
    ,                        !- Beam Solar Day Schedule Name
    ,                        !- Diffuse Solar Day Schedule Name
    ,                        !- ASHRAE Clear Sky Optical Depth for Beam Irradiance (taub) {dimensionless}
    ,                        !- ASHRAE Clear Sky Optical Depth for Diffuse Irradiance (taud) {dimensionless}
    1.00;                    !- Sky Clearness

!-   ===========  ALL OBJECTS IN CLASS: RUNPERIOD ===========

  RunPeriod,
    Run Period 1,            !- Name
    1,                       !- Begin Month
    14,                      !- Begin Day of Month
    ,                        !- Begin Year
    1,                       !- End Month
    14,                      !- End Day of Month
    ,                        !- End Year
    ,                        !- Day of Week for Start Day
    No,                      !- Use Weather File Holidays and Special Days
    No,                      !- Use Weather File Daylight Saving Period
    No,                      !- Apply Weekend Holiday Rule
    No,                      !- Use Weather File Rain Indicators
    No;                      !- Use Weather File Snow Indicators

  RunPeriod,
    Run Period 2,            !- Name
    7,                       !- Begin Month
    7,                       !- Begin Day of Month
    ,                        !- Begin Year
    7,                       !- End Month
    7,                       !- End Day of Month
    ,                        !- End Year
    ,                        !- Day of Week for Start Day
    No,                      !- Use Weather File Holidays and Special Days
    No,                      !- Use Weather File Daylight Saving Period
    No,                      !- Apply Weekend Holiday Rule
    No,                      !- Use Weather File Rain Indicators
    No;                      !- Use Weather File Snow Indicators

!-   ===========  ALL OBJECTS IN CLASS: RUNPERIODCONTROL:DAYLIGHTSAVINGTIME ===========
!  WMO=722020 Time Zone=NAE        (GMT-05:00) Eastern Time (US & Canada)
!  Data Source=ASHRAE 2005 Annual Design Conditions

  RunPeriodControl:DaylightSavingTime,
    1st Sunday in April,     !- Start Date
    Last Sunday in October;  !- End Date

!-   ===========  ALL OBJECTS IN CLASS: SITE:GROUNDTEMPERATURE:BUILDINGSURFACE ===========

  Site:GroundTemperature:BuildingSurface,18,18,18,19,19,20,20,21,21,20,19,18;

!-   ===========  ALL OBJECTS IN CLASS: SCHEDULETYPELIMITS ===========

  ScheduleTypeLimits,
    AnyNumber;               !- Name

  ScheduleTypeLimits,
    Fraction,                !- Name
    0.0,                     !- Lower Limit Value
    1.0,                     !- Upper Limit Value
    CONTINUOUS;              !- Numeric Type

  ScheduleTypeLimits,
    Temperature,             !- Name
    -60,                     !- Lower Limit Value
    200,                     !- Upper Limit Value
    CONTINUOUS,              !- Numeric Type
    Temperature;             !- Unit Type

  ScheduleTypeLimits,
    Control Type,            !- Name
    0,                       !- Lower Limit Value
    4,                       !- Upper Limit Value
    DISCRETE;                !- Numeric Type

  ScheduleTypeLimits,
    On/Off,                  !- Name
    0,                       !- Lower Limit Value
    1,                       !- Upper Limit Value
    DISCRETE;                !- Numeric Type

  ScheduleTypeLimits,
    Humidity,                !- Name
    0,                       !- Lower Limit Value
    100,                     !- Upper Limit Value
    CONTINUOUS;              !- Numeric Type

!-   ===========  ALL OBJECTS IN CLASS: SCHEDULE:COMPACT ===========

  Schedule:Compact,
    People_Shopping_Sch,     !- Name
    Fraction,                !- Schedule Type Limits Name
    Through: 12/31,          !- Field 1
    For: Weekdays SummerDesignDay WinterDesignDay, !- Field 2
    Until: 8:00,0.02,        !- Field 3
    Until: 20:00,1,          !- Field 5
    Until: 24:00,0.04,       !- Field 7
    For: Saturday,           !- Field 9
    Until: 8:00,0.01,        !- Field 10
    Until: 18:00,1,          !- Field 12
    Until: 24:00,0.05,       !- Field 14
    For: AllOtherDays,       !- Field 16
    Until: 8:00,0.01,        !- Field 17
    Until: 18:00,0.75,       !- Field 19
    Until: 24:00,0.01;       !- Field 21

  Schedule:Compact,
    Lighting_Sch,            !- Name
    Fraction,                !- Schedule Type Limits Name
    Through: 12/31,          !- Field 1
    For: Weekdays SummerDesignDay WinterDesignDay, !- Field 2
    Until: 4:00,0.2,         !- Field 3
    Until: 7:00,0.3,         !- Field 5
    Until: 21:00,1,          !- Field 7
    Until: 22:00,0.3,        !- Field 9
    Until: 24:00,0.2,        !- Field 11
    For: Saturday,           !- Field 13
    Until: 4:00,0.2,         !- Field 14
    Until: 7:00,0.3,         !- Field 16
    Until: 21:00,1,          !- Field 18
    Until: 22:00,0.3,        !- Field 20
    Until: 24:00,0.2,        !- Field 22
    For: AllOtherDays,       !- Field 24
    Until: 4:00,0.2,         !- Field 25
    Until: 7:00,0.3,         !- Field 27
    Until: 21:00,1,          !- Field 29
    Until: 22:00,0.3,        !- Field 31
    Until: 24:00,0.2;        !- Field 33

  Schedule:Compact,
    Register_Equip_Sch,      !- Name
    Fraction,                !- Schedule Type Limits Name
    Through: 12/31,          !- Field 1
    For: Weekdays SummerDesignDay WinterDesignDay, !- Field 2
    Until: 8:00,0.0,         !- Field 3
    Until: 19:00,1,          !- Field 5
    Until: 24:00,0.0,        !- Field 7
    For: Saturday,           !- Field 9
    Until: 8:00,0.0,         !- Field 10
    Until: 19:00,1,          !- Field 12
    Until: 24:00,0.0,        !- Field 14
    For: AllOtherDays,       !- Field 16
    Until: 8:00,0.0,         !- Field 17
    Until: 19:00,1,          !- Field 19
    Until: 24:00,0.0;        !- Field 21

  Schedule:Compact,
    Bakery_Equip_Sch,        !- Name
    Fraction,                !- Schedule Type Limits Name
    Through: 12/31,          !- Field 1
    For: Weekdays SummerDesignDay WinterDesignDay, !- Field 2
    Until: 4:00,0.0,         !- Field 3
    Until: 18:00,1,          !- Field 5
    Until: 24:00,0.0,        !- Field 7
    For: Saturday,           !- Field 9
    Until: 4:00,0.0,         !- Field 10
    Until: 18:00,1,          !- Field 12
    Until: 24:00,0.0,        !- Field 14
    For: AllOtherDays,       !- Field 16
    Until: 4:00,0.0,         !- Field 17
    Until: 18:00,1,          !- Field 19
    Until: 24:00,0.0;        !- Field 21

  Schedule:Compact,
    Elec_Equip_Sch,          !- Name
    Fraction,                !- Schedule Type Limits Name
    Through: 12/31,          !- Field 1
    For: Weekdays SummerDesignDay WinterDesignDay, !- Field 2
    Until: 8:00,0.5,         !- Field 3
    Until: 18:00,1,          !- Field 5
    Until: 24:00,0.5,        !- Field 7
    For: Saturday,           !- Field 9
    Until: 8:00,0.5,         !- Field 10
    Until: 18:00,1,          !- Field 12
    Until: 24:00,0.5,        !- Field 14
    For: AllOtherDays,       !- Field 16
    Until: 8:00,0.5,         !- Field 17
    Until: 18:00,1,          !- Field 19
    Until: 24:00,0.5;        !- Field 21

  Schedule:Compact,
    Activity_Shopping_Sch,   !- Name
    AnyNumber,               !- Schedule Type Limits Name
    Through: 12/31,          !- Field 1
    For: AllDays,            !- Field 2
    Until: 24:00,105;        !- Field 3

  Schedule:Compact,
    CaseLightingSched,       !- Name
    ON/OFF,                  !- Schedule Type Limits Name
    Through: 12/31,          !- Field 1
    For: AllDays,            !- Field 2
    Until: 6:00,0.0,         !- Field 3
    Until: 21:00,1.0,        !- Field 5
    Until: 24:00,0.0;        !- Field 7

  Schedule:Compact,
    CaseLightingSched2,      !- Name
    AnyNumber,               !- Schedule Type Limits Name
    Through: 12/31,          !- Field 1
    For: AllDays,            !- Field 2
    Until: 6:00,0.0,         !- Field 3
    Until: 7:00,1.0,         !- Field 5
    Until: 11:00,0.0,        !- Field 7
    Until: 13:00,0.5,        !- Field 9
    Until: 19:00,0.0,        !- Field 11
    Until: 20:00,1.0,        !- Field 13
    Until: 24:00,0.0;        !- Field 15

  Schedule:Compact,
    LightingOnSched,         !- Name
    ON/OFF,                  !- Schedule Type Limits Name
    Through: 12/31,          !- Field 1
    For: AllDays,            !- Field 2
    Until: 24:00,1.0;        !- Field 3

  Schedule:Compact,
    CaseStockingSched,       !- Name
    AnyNumber,               !- Schedule Type Limits Name
    Through: 12/31,          !- Field 1
    For: AllDays,            !- Field 2
    Until: 13:00,0.0,        !- Field 3
    Until: 14:00,50.0,       !- Field 5
    Until: 15:00,35.0,       !- Field 7
    Until: 24:00,0.0;        !- Field 9

  Schedule:Compact,
    SelfContainedCaseStockingSched,  !- Name
    AnyNumber,               !- Schedule Type Limits Name
    Through: 12/31,          !- Field 1
    For: AllDays,            !- Field 2
    Until: 6:00,0.0,         !- Field 3
    Until: 7:00,50.0,        !- Field 5
    Until: 9:00,70.0,        !- Field 7
    Until: 10:00,80.0,       !- Field 9
    Until: 11:00,70.0,       !- Field 11
    Until: 13:00,50.0,       !- Field 13
    Until: 14:00,80.0,       !- Field 15
    Until: 15:00,90.0,       !- Field 17
    Until: 16:00,80.0,       !- Field 19
    Until: 24:00,0.0;        !- Field 21

  Schedule:Compact,
    WalkInStockingSched,     !- Name
    AnyNumber,               !- Schedule Type Limits Name
    Through: 12/31,          !- Field 1
    For: Tuesday Friday,     !- Field 2
    Until: 4:00,0.0,         !- Field 3
    Until: 5:00,725.0,       !- Field 5
    Until: 6:00,417.0,       !- Field 7
    Until: 7:00,290.0,       !- Field 9
    Until: 24:00,0.0,        !- Field 11
    For: AllOtherDays,       !- Field 13
    Until: 4:00,0.0,         !- Field 14
    Until: 5:00,125.0,       !- Field 16
    Until: 6:00,117.0,       !- Field 18
    Until: 7:00,90.0,        !- Field 20
    Until: 19:00,0.0,        !- Field 22
    Until: 20:00,125.0,      !- Field 24
    Until: 21:00,117.0,      !- Field 26
    Until: 22:00,90.0,       !- Field 28
    Until: 24:00,0.0;        !- Field 30

  Schedule:Compact,
    OAFractionSched,         !- Name
    Fraction,                !- Schedule Type Limits Name
    Through: 12/31,          !- Field 1
    For: AllDays,            !- Field 2
    Until: 6:00,0.0,         !- Field 3
    Until: 20:00,1.0,        !- Field 5
    Until: 24:00,0.0;        !- Field 7

  Schedule:Compact,
    CaseOperatingSched,      !- Name
    ON/OFF,                  !- Schedule Type Limits Name
    Through: 12/31,          !- Field 1
    For: AllDays,            !- Field 2
    Until: 24:00,1.0;        !- Field 3

  Schedule:Compact,
    CaseCleanedOnMonday,     !- Name
    AnyNumber,               !- Schedule Type Limits Name
    Through: 12/31,          !- Field 1
    For: Monday,             !- Field 2
    Until: 5:00,1.0,         !- Field 3
    Until: 7:00,0.0,         !- Field 5
    Until: 24:00,1.0,        !- Field 7
    For: AllOtherDays,       !- Field 9
    Until: 24:00,1.0;        !- Field 10

  Schedule:Compact,
    CaseCleanedOnTuesday,    !- Name
    AnyNumber,               !- Schedule Type Limits Name
    Through: 12/31,          !- Field 1
    For: Tuesday,            !- Field 2
    Until: 5:00,1.0,         !- Field 3
    Until: 7:00,0.0,         !- Field 5
    Until: 24:00,1.0,        !- Field 7
    For: AllOtherDays,       !- Field 9
    Until: 24:00,1.0;        !- Field 10

  Schedule:Compact,
    FanAndCoilAvailSched,    !- Name
    ON/OFF,                  !- Schedule Type Limits Name
    Through: 12/31,          !- Field 1
    For: AllDays,            !- Field 2
    Until: 24:00,1.0;        !- Field 3

  Schedule:Compact,
    OutdoorAirAvailSched,    !- Name
    ON/OFF,                  !- Schedule Type Limits Name
    Through: 12/31,          !- Field 1
    For: AllDays,            !- Field 2
    Until: 24:00,1.0;        !- Field 3

  Schedule:Compact,
    Heating Setpoints,       !- Name
    Temperature,             !- Schedule Type Limits Name
    Through: 12/31,          !- Field 1
    For: AllDays,            !- Field 2
    Until: 24:00,22.0;       !- Field 3

  Schedule:Compact,
    Cooling Setpoints,       !- Name
    Temperature,             !- Schedule Type Limits Name
    Through: 12/31,          !- Field 1
    For: AllDays,            !- Field 2
    Until: 24:00,24.0;       !- Field 3

  Schedule:Compact,
    Zone Control Type Sched, !- Name
    Control Type,            !- Schedule Type Limits Name
    Through: 12/31,          !- Field 1
    For: AllDays,            !- Field 2
    Until: 24:00,4;          !- Field 3

  Schedule:Compact,
    Seasonal Relative Humidity Sch,  !- Name
    Humidity,                !- Schedule Type Limits Name
    Through: 12/31,          !- Field 1
    For: AllDays,            !- Field 2
    Until: 24:00,50.0;       !- Field 3

  Schedule:Compact,
    CaseCreditReductionSched,!- Name
    fraction,                !- Schedule Type Limits Name
    Through: 12/31,          !- Field 1
    For:AllDays,             !- Field 2
    Interpolate:No,          !- Field 3
    Until: 7:00,0.2,         !- Field 4
    Until: 21:00,1.0,        !- Field 6
    Until: 24:00,0.2;        !- Field 8

  Schedule:Compact,
    DairyCaseCreditReductionSched,  !- Name
    fraction,                !- Schedule Type Limits Name
    Through: 12/31,          !- Field 1
    For:AllDays,             !- Field 2
    Interpolate:No,          !- Field 3
    Until: 7:00,0.2,         !- Field 4
    Until: 21:00,0.6,        !- Field 6
    Until: 24:00,0.2;        !- Field 8

  Schedule:Compact,
    CaseDefrostSched,        !- Name
    ON/OFF,                  !- Schedule Type Limits Name
    Through: 12/31,          !- Field 1
    For:AllDays,             !- Field 2
    Interpolate:Average,     !- Field 3
    Until: 4:00,0,           !- Field 4
    Until: 4:17,1,           !- Field 6
    Until: 14:00,0,          !- Field 8
    Until: 14:17,1,          !- Field 10
    Until: 24:00,0;          !- Field 12

  Schedule:Compact,
    CaseDripDownSched,       !- Name
    ON/OFF,                  !- Schedule Type Limits Name
    Through: 12/31,          !- Field 1
    For:AllDays,             !- Field 2
    Interpolate:Average,     !- Field 3
    Until: 4:00,0,           !- Field 4
    Until: 4:22,1,           !- Field 6
    Until: 14:00,0,          !- Field 8
    Until: 14:22,1,          !- Field 10
    Until: 24:00,0;          !- Field 12

  Schedule:Compact,
    CaseDefrostSched2,       !- Name
    ON/OFF,                  !- Schedule Type Limits Name
    Through: 12/31,          !- Field 1
    For:AllDays,             !- Field 2
    Interpolate:Average,     !- Field 3
    Until: 08:00,0,          !- Field 4
    Until: 08:17,1,          !- Field 6
    Until: 18:00,0,          !- Field 8
    Until: 18:17,1,          !- Field 10
    Until: 24:00,0;          !- Field 12

  Schedule:Compact,
    CaseDripDownSched2,      !- Name
    ON/OFF,                  !- Schedule Type Limits Name
    Through: 12/31,          !- Field 1
    For:AllDays,             !- Field 2
    Interpolate:Average,     !- Field 3
    Until: 08:00,0,          !- Field 4
    Until: 08:22,1,          !- Field 6
    Until: 18:00,0,          !- Field 8
    Until: 18:22,1,          !- Field 10
    Until: 24:00,0;          !- Field 12

  Schedule:Compact,
    CaseDefrostSched3,       !- Name
    ON/OFF,                  !- Schedule Type Limits Name
    Through: 12/31,          !- Field 1
    For:AllDays,             !- Field 2
    Interpolate:Average,     !- Field 3
    Until: 11:00,0,          !- Field 4
    Until: 11:20,1,          !- Field 6
    Until: 23:00,0,          !- Field 8
    Until: 23:20,1,          !- Field 10
    Until: 24:00,0;          !- Field 12

  Schedule:Compact,
    CaseDripDownSched3,      !- Name
    ON/OFF,                  !- Schedule Type Limits Name
    Through: 12/31,          !- Field 1
    For:AllDays,             !- Field 2
    Interpolate:Average,     !- Field 3
    Until: 11:00,0,          !- Field 4
    Until: 11:30,1,          !- Field 6
    Until: 23:00,0,          !- Field 8
    Until: 23:30,1,          !- Field 10
    Until: 24:00,0;          !- Field 12

  Schedule:Compact,
    CaseDefrostSched4,       !- Name
    ON/OFF,                  !- Schedule Type Limits Name
    Through: 12/31,          !- Field 1
    For:AllDays,             !- Field 2
    Interpolate:Average,     !- Field 3