!-Generator IDFEditor 1.34
!-Option OriginalOrderTop UseSpecialFormat
!-NOTE: All comments with '!-' are ignored by the IDFEditor and are generated automatically.
!-      Use '!' comments if they need to be retained when using the IDFEditor.
! TranspiredCollectors.idf
! Basic File Description:  1 story mixed use building with  5 office zones and 5 workshop zones.
!
! Highlights:  Demonstrates and tests several Unglazed Transpired Collectors.
!
! Simulation Location/Run: Boulder, Colorado  WeatherFilename=USA_CO_Boulder_TMY2.epw
!
! Building: Single story mixed-use building with offices and workshops.
!           The office wing of the building is on the west end and consists has 1,000 m2 (20 by 50 m) in five occupied
!           thermal zones.  There are five unoccupied interstitial zones above the occupied zones representing suspended ceilings
!           There are five 400 m2 (20 by 20 m) workshops in row that differ only in how they are ventilated and heated using
!           different configurations of Solar Collector:Transpired Unglazed.
!
! Internal Gains description: Offices have typical levels, schedules are from RP-1093.
!
! HVAC:  Offices are conditioned normally using five separate single zone packaged DX systems with gas heat,
!        EXCEPT that the five outside air mixers are all connected to a single Transpired Collector.  These systems are
!        autosized and use DXSystem:AirLoop
!        Workshops are ventilated but not actively cooled.  Heating and Transpired Collectors vary as follows:
!        ZN11_Shop_1 is a constant volume transpired collector with gas auxilary heating coil
!        ZN12_Shop_1 is a constant volume transpired collector with gas auxilary heating coil (same as ZN11) but
!                    with the Van Decker Hollands Brunger 2001 correlation for effectiveness.
!        ZN13_Shop_1 is a constant volume outside air system with no auxilary heating system.
!        ZN14_Shop_1 is a constant volume transpired collector with gas auxilary heating coil (same as ZN11) but
!                     with a hybrid collector where the collector is also a photovoltaic electric power panel.
!        ZN15_Shop_1 is a floating zone
!

  Version,24.1;

  Timestep,4;

  SimulationControl,
    Yes,                     !- Do Zone Sizing Calculation
    Yes,                     !- Do System Sizing Calculation
    No,                      !- Do Plant Sizing Calculation
    No,                      !- Run Simulation for Sizing Periods
    Yes,                     !- Run Simulation for Weather File Run Periods
    No,                      !- Do HVAC Sizing Simulation for Sizing Periods
    1;                       !- Maximum Number of HVAC Sizing Simulation Passes

  RunPeriod,
    Run Period 1,            !- Name
    2,                       !- Begin Month
    1,                       !- Begin Day of Month
    ,                        !- Begin Year
    2,                       !- End Month
    14,                      !- End Day of Month
    ,                        !- End Year
    Sunday,                  !- Day of Week for Start Day
    No,                      !- Use Weather File Holidays and Special Days
    No,                      !- Use Weather File Daylight Saving Period
    No,                      !- Apply Weekend Holiday Rule
    Yes,                     !- Use Weather File Rain Indicators
    yes;                     !- Use Weather File Snow Indicators

  RunPeriod,
    Run Period 2,            !- Name
    2,                       !- Begin Month
    1,                       !- Begin Day of Month
    ,                        !- Begin Year
    2,                       !- End Month
    14,                      !- End Day of Month
    ,                        !- End Year
    Sunday,                  !- Day of Week for Start Day
    No,                      !- Use Weather File Holidays and Special Days
    No,                      !- Use Weather File Daylight Saving Period
    No,                      !- Apply Weekend Holiday Rule
    Yes,                     !- Use Weather File Rain Indicators
    yes;                     !- Use Weather File Snow Indicators

  SurfaceConvectionAlgorithm:Inside,TARP;

  SurfaceConvectionAlgorithm:Outside,DOE-2;

  HeatBalanceAlgorithm,ConductionTransferFunction;

  Sizing:Parameters,
    1.2,                     !- Heating Sizing Factor
    1.2,                     !- Cooling Sizing Factor
    ;                        !- Timesteps in Averaging Window

  GlobalGeometryRules,
    UpperLeftCorner,         !- Starting Vertex Position
    CounterClockWise,        !- Vertex Entry Direction
    Relative;                !- Coordinate System

  Building,
    AutoBuilt model,         !- Name
    0.00,                    !- North Axis {deg}
    City,                    !- Terrain
    0.04,                    !- Loads Convergence Tolerance Value {W}
    0.2,                     !- Temperature Convergence Tolerance Value {deltaC}
    FullInteriorAndExterior, !- Solar Distribution
    25,                      !- Maximum Number of Warmup Days
    6;                       !- Minimum Number of Warmup Days

  Site:Location,
    BOULDER_CO_USA TMY2-94018,  !- Name
    40.02000,                !- Latitude {deg}
    -105.2500,               !- Longitude {deg}
    -7.000000,               !- Time Zone {hr}
    1634.000;                !- Elevation {m}

! DENVER_STAPLETON_CO_USA Annual Heating Design Conditions Wind Speed=2.3m/s Wind Dir=180
! Coldest Month=December
! DENVER_STAPLETON_CO_USA Annual Heating 99.6%, MaxDB=-20°C

  SizingPeriod:DesignDay,
    DENVER_STAPLETON Ann Htg 99.6% Condns DB,  !- Name
    12,                      !- Month
    21,                      !- Day of Month
    WinterDesignDay,         !- Day Type
    -20,                     !- Maximum Dry-Bulb Temperature {C}
    0.0,                     !- Daily Dry-Bulb Temperature Range {deltaC}
    ,                        !- Dry-Bulb Temperature Range Modifier Type
    ,                        !- Dry-Bulb Temperature Range Modifier Day Schedule Name
    Wetbulb,                 !- Humidity Condition Type
    -20,                     !- Wetbulb or DewPoint at Maximum Dry-Bulb {C}
    ,                        !- Humidity Condition Day Schedule Name
    ,                        !- Humidity Ratio at Maximum Dry-Bulb {kgWater/kgDryAir}
    ,                        !- Enthalpy at Maximum Dry-Bulb {J/kg}
    ,                        !- Daily Wet-Bulb Temperature Range {deltaC}
    83411.,                  !- Barometric Pressure {Pa}
    2.3,                     !- Wind Speed {m/s}
    180,                     !- Wind Direction {deg}
    No,                      !- Rain Indicator
    No,                      !- Snow Indicator
    No,                      !- Daylight Saving Time Indicator
    ASHRAEClearSky,          !- Solar Model Indicator
    ,                        !- Beam Solar Day Schedule Name
    ,                        !- Diffuse Solar Day Schedule Name
    ,                        !- ASHRAE Clear Sky Optical Depth for Beam Irradiance (taub) {dimensionless}
    ,                        !- ASHRAE Clear Sky Optical Depth for Diffuse Irradiance (taud) {dimensionless}
    0.00;                    !- Sky Clearness

! DENVER_STAPLETON Annual Cooling Design Conditions Wind Speed=4m/s Wind Dir=120
! Hottest Month=July
! DENVER_STAPLETON_CO_USA Annual Cooling (DB=>MWB) .4%, MaxDB=34.1°C MWB=15.8°C

  SizingPeriod:DesignDay,
    DENVER_STAPLETON Ann Clg .4% Condns DB=>MWB,  !- Name
    7,                       !- Month
    21,                      !- Day of Month
    SummerDesignDay,         !- Day Type
    34.1,                    !- Maximum Dry-Bulb Temperature {C}
    15.2,                    !- Daily Dry-Bulb Temperature Range {deltaC}
    ,                        !- Dry-Bulb Temperature Range Modifier Type
    ,                        !- Dry-Bulb Temperature Range Modifier Day Schedule Name
    Wetbulb,                 !- Humidity Condition Type
    15.8,                    !- Wetbulb or DewPoint at Maximum Dry-Bulb {C}
    ,                        !- Humidity Condition Day Schedule Name
    ,                        !- Humidity Ratio at Maximum Dry-Bulb {kgWater/kgDryAir}
    ,                        !- Enthalpy at Maximum Dry-Bulb {J/kg}
    ,                        !- Daily Wet-Bulb Temperature Range {deltaC}
    83411.,                  !- Barometric Pressure {Pa}
    4,                       !- Wind Speed {m/s}
    120,                     !- Wind Direction {deg}
    No,                      !- Rain Indicator
    No,                      !- Snow Indicator
    No,                      !- Daylight Saving Time Indicator
    ASHRAEClearSky,          !- Solar Model Indicator
    ,                        !- Beam Solar Day Schedule Name
    ,                        !- Diffuse Solar Day Schedule Name
    ,                        !- ASHRAE Clear Sky Optical Depth for Beam Irradiance (taub) {dimensionless}
    ,                        !- ASHRAE Clear Sky Optical Depth for Diffuse Irradiance (taud) {dimensionless}
    1.00;                    !- Sky Clearness

  Site:GroundTemperature:BuildingSurface,19.82,19.83,19.86,19.89,19.92,19.94,19.91,19.97,19.93,19.96,19.95,19.92;

  ScheduleTypeLimits,
    Any Number;              !- Name

  ScheduleTypeLimits,
    Fraction,                !- Name
    0.0,                     !- Lower Limit Value
    1.0,                     !- Upper Limit Value
    CONTINUOUS;              !- Numeric Type

  ScheduleTypeLimits,
    Temperature,             !- Name
    -60,                     !- Lower Limit Value
    200,                     !- Upper Limit Value
    CONTINUOUS,              !- Numeric Type
    Temperature;             !- Unit Type

  ScheduleTypeLimits,
    On/Off,                  !- Name
    0,                       !- Lower Limit Value
    1,                       !- Upper Limit Value
    DISCRETE;                !- Numeric Type

  ScheduleTypeLimits,
    Control Type,            !- Name
    0,                       !- Lower Limit Value
    4,                       !- Upper Limit Value
    DISCRETE;                !- Numeric Type

  ScheduleTypeLimits,
    Humidity,                !- Name
    10,                      !- Lower Limit Value
    90,                      !- Upper Limit Value
    CONTINUOUS;              !- Numeric Type

  Schedule:Compact,
    ALWAYS_ON,               !- Name
    Fraction,                !- Schedule Type Limits Name
    Through: 12/31,          !- Field 1
    For: AllDays,            !- Field 2
    Until: 24:00,1.0;        !- Field 3

! Schedule Office HVAC Systems, ASHRAE 90.1-1989, Section 13

  Schedule:Compact,
    HVACOperationSchd,       !- Name
    on/off,                  !- Schedule Type Limits Name
    Through: 12/31,          !- Field 1
    For: SummerDesignDay,    !- Field 2
    Until: 24:00,1.0,        !- Field 3
    For: WinterDesignDay,    !- Field 5
    Until: 24:00,1.0,        !- Field 6
    For: Weekdays,           !- Field 8
    Until: 06:00,0.0,        !- Field 9
    Until: 22:00,1.0,        !- Field 11
    Until: 24:00,0.0,        !- Field 13
    For: Saturday,           !- Field 15
    Until: 06:00,0.0,        !- Field 16
    Until: 18:00,1.0,        !- Field 18
    Until: 24:00,0.0,        !- Field 20
    For: Sunday Holidays AllOtherDays, !- Field 22
    Until: 24:00,0.0;        !- Field 23

! Schedule Office Lighting,  ASHRAE 90.1-1989, Section 13 w/addenda

  Schedule:Compact,
    BLDG_LIGHT_SCH,          !- Name
    Fraction,                !- Schedule Type Limits Name
    Through: 12/31,          !- Field 1
    For: Weekdays SummerDesignDay, !- Field 2
    Until: 05:00,0.05,       !- Field 3
    Until: 07:00,0.1,        !- Field 5
    Until: 08:00,0.3,        !- Field 7
    Until: 17:00,0.9,        !- Field 9
    Until: 18:00,0.5,        !- Field 11
    Until: 20:00,0.3,        !- Field 13
    Until: 22:00,0.2,        !- Field 15
    Until: 23:00,0.1,        !- Field 17
    Until: 24:00,0.05,       !- Field 19
    For: Saturday WinterDesignDay, !- Field 21
    Until: 06:00,0.05,       !- Field 22
    Until: 08:00,0.1,        !- Field 24
    Until: 12:00,0.3,        !- Field 26
    Until: 17:00,0.15,       !- Field 28
    Until: 24:00,0.05,       !- Field 30
    For: Sunday Holidays AllOtherDays, !- Field 32
    Until: 24:00,0.05;       !- Field 33

! Schedule Office Receptacle,  ASHRAE 90.1-1989, Section 13
! MODIFIED for increased off-hours plug loads (to account for more IT equipment)

  Schedule:Compact,
    BLDG_EQUIP_SCH,          !- Name
    Fraction,                !- Schedule Type Limits Name
    Through: 12/31,          !- Field 1
    For: Weekdays SummerDesignDay, !- Field 2
    Until: 08:00,0.40,       !- Field 3
    Until: 12:00,0.90,       !- Field 5
    Until: 13:00,0.80,       !- Field 7
    Until: 17:00,0.90,       !- Field 9
    Until: 18:00,0.50,       !- Field 11
    Until: 24:00,0.40,       !- Field 13
    For: Saturday WinterDesignDay, !- Field 15
    Until: 06:00,0.30,       !- Field 16
    Until: 08:00,0.4,        !- Field 18
    Until: 12:00,0.5,        !- Field 20
    Until: 17:00,0.35,       !- Field 22
    Until: 24:00,0.30,       !- Field 24
    For: Sunday Holidays AllOtherDays, !- Field 26
    Until: 24:00,0.30;       !- Field 27

! Schedule Office Occupancy,

  Schedule:Compact,
    BLDG_OCC_SCH,            !- Name
    Fraction,                !- Schedule Type Limits Name
    Through: 12/31,          !- Field 1
    For: Weekdays SummerDesignDay, !- Field 2
    Until: 06:00,0.0,        !- Field 3
    Until: 07:00,0.1,        !- Field 5
    Until: 08:00,0.2,        !- Field 7
    Until: 12:00,0.95,       !- Field 9
    Until: 13:00,0.5,        !- Field 11
    Until: 17:00,0.95,       !- Field 13
    Until: 18:00,0.3,        !- Field 15
    Until: 22:00,0.1,        !- Field 17
    Until: 24:00,0.05,       !- Field 19
    For: Saturday WinterDesignDay, !- Field 21
    Until: 06:00,0.0,        !- Field 22
    Until: 08:00,0.1,        !- Field 24
    Until: 12:00,0.3,        !- Field 26
    Until: 17:00,0.1,        !- Field 28
    Until: 19:00,0.05,       !- Field 30
    Until: 24:00,0.0,        !- Field 32
    For: Sunday Holidays AllOtherDays, !- Field 34
    Until: 06:00,0.0,        !- Field 35
    Until: 18:00,0.05,       !- Field 37
    Until: 24:00,0.0;        !- Field 39

  Schedule:Compact,
    ACTIVITY_SCH,            !- Name
    Any Number,              !- Schedule Type Limits Name
    Through: 12/31,          !- Field 1
    For: AllDays,            !- Field 2
    Until: 24:00,120.;       !- Field 3

  Schedule:Compact,
    WORK_EFF_SCH,            !- Name
    Fraction,                !- Schedule Type Limits Name
    Through: 12/31,          !- Field 1
    For: AllDays,            !- Field 2
    Until: 24:00,0.0;        !- Field 3

  Schedule:Compact,
    AIR_VELO_SCH,            !- Name
    Any Number,              !- Schedule Type Limits Name
    Through: 12/31,          !- Field 1
    For: AllDays,            !- Field 2
    Until: 24:00,0.2;        !- Field 3

  Schedule:Compact,
    CLOTHING_SCH,            !- Name
    Any Number,              !- Schedule Type Limits Name
    Through: 04/30,          !- Field 1
    For: AllDays,            !- Field 2
    Until: 24:00,1.0,        !- Field 3
    Through: 09/30,          !- Field 5
    For: AllDays,            !- Field 6
    Until: 24:00,0.5,        !- Field 7
    Through: 12/31,          !- Field 9
    For: AllDays,            !- Field 10
    Until: 24:00,1.0;        !- Field 11

  Schedule:Compact,
    INFIL_SCH,               !- Name
    on/off,                  !- Schedule Type Limits Name
    Through: 12/31,          !- Field 1
    For: Weekdays SummerDesignDay, !- Field 2
    Until: 06:00,1.0,        !- Field 3
    Until: 22:00,0.0,        !- Field 5
    Until: 24:00,1.0,        !- Field 7
    For: Saturday WinterDesignDay, !- Field 9
    Until: 06:00,1.0,        !- Field 10
    Until: 18:00,0.0,        !- Field 12
    Until: 24:00,1.0,        !- Field 14
    For: Sunday Holidays AllOtherDays, !- Field 16
    Until: 24:00,1.0;        !- Field 17

  Schedule:Compact,
    HTGSETP_SCH,             !- Name
    Temperature,             !- Schedule Type Limits Name
    Through: 12/31,          !- Field 1
    For: Weekdays,           !- Field 2
    Until: 06:00,13.,        !- Field 3
    Until: 19:00,21.0,       !- Field 5
    Until: 24:00,13.,        !- Field 7
    For SummerDesignDay,     !- Field 9
    Until: 24:00,13.,        !- Field 10
    For: Saturday,           !- Field 12
    Until: 06:00,13.,        !- Field 13
    Until: 13:00,21.0,       !- Field 15
    Until: 24:00,13.,        !- Field 17
    For WinterDesignDay,     !- Field 19
    Until: 24:00,21.0,       !- Field 20
    For: Sunday Holidays AllOtherDays, !- Field 22
    Until: 24:00,13.;        !- Field 23

  Schedule:Compact,
    CLGSETP_SCH,             !- Name
    Temperature,             !- Schedule Type Limits Name
    Through: 12/31,          !- Field 1
    For: Weekdays,           !- Field 2
    Until: 06:00,33.0,       !- Field 3
    Until: 22:00,24.0,       !- Field 5
    Until: 24:00,33.0,       !- Field 7
    For SummerDesignDay,     !- Field 9
    Until: 24:00,24.0,       !- Field 10
    For: Saturday,           !- Field 12
    Until: 06:00,33.0,       !- Field 13
    Until: 18:00,24.0,       !- Field 15
    Until: 24:00,33.0,       !- Field 17
    For WinterDesignDay,     !- Field 19
    Until: 24:00,33.0,       !- Field 20
    For: Sunday Holidays AllOtherDays, !- Field 22
    Until: 24:00,33.0;       !- Field 23

  Schedule:Compact,
    MinOA_Sched,             !- Name
    on/off,                  !- Schedule Type Limits Name
    Through: 12/31,          !- Field 1
    For: Weekdays SummerDesignDay, !- Field 2
    Until: 05:00,0.0,        !- Field 3
    Until: 22:00,1.0,        !- Field 5
    Until: 24:00,0.0,        !- Field 7
    For: Saturday WinterDesignDay, !- Field 9
    Until: 07:00,0.0,        !- Field 10
    Until: 18:00,1.0,        !- Field 12
    Until: 24:00,0.0,        !- Field 14
    For: Sunday Holidays AllOtherDays, !- Field 16
    Until: 24:00,0.0;        !- Field 17

  Schedule:Compact,
    Dual Zone Control Type Sched,  !- Name
    Temperature,             !- Schedule Type Limits Name
    Through: 12/31,          !- Field 1
    For: AllDays,            !- Field 2
    Until: 24:00,4;          !- Field 3

  Schedule:Compact,
    ShopFreeHeatingSetpoints,!- Name
    Temperature,             !- Schedule Type Limits Name
    Through: 12/31,          !- Field 1
    For: AllDays,            !- Field 2
    Until: 24:00,21.0;       !- Field 3

  Schedule:Compact,
    ShopHeatingSetpoints,    !- Name
    Temperature,             !- Schedule Type Limits Name
    Through: 12/31,          !- Field 1
    For: AllDays,            !- Field 2
    Until: 24:00,12.0;       !- Field 3

  Schedule:Compact,
    ShopCoolingSetpoints,    !- Name
    Temperature,             !- Schedule Type Limits Name
    Through: 12/31,          !- Field 1
    For: AllDays,            !- Field 2
    Until: 24:00,24.0;       !- Field 3

  Schedule:Compact,
    Shop Control Type Sched, !- Name
    Control Type,            !- Schedule Type Limits Name
    Through: 4/30,           !- Field 1
    For: AllDays,            !- Field 2
    Until: 24:00,1,          !- Field 3
    Through: 9/30,           !- Field 5
    For: AllDays,            !- Field 6
    Until: 24:00,2,          !- Field 7
    Through: 12/31,          !- Field 9
    For: AllDays,            !- Field 10
    Until: 24:00,1;          !- Field 11

  Schedule:Compact,
    HeatingAvailSched,       !- Name
    Fraction,                !- Schedule Type Limits Name
    Through: 4/30,           !- Field 1
    For: AllDays,            !- Field 2
    Until: 24:00,1.0,        !- Field 3
    Through: 9/30,           !- Field 5
    For: AllDays,            !- Field 6
    Until: 24:00,0.0,        !- Field 7
    Through: 12/31,          !- Field 9
    For: AllDays,            !- Field 10
    Until: 24:00,1.0;        !- Field 11

! US National Holidays

  RunPeriodControl:SpecialDays,
    New Years Day,           !- Name
    January 1,               !- Start Date
    1,                       !- Duration {days}
    Holiday;                 !- Special Day Type

  RunPeriodControl:SpecialDays,
    Veterans Day,            !- Name
    November 11,             !- Start Date
    1,                       !- Duration {days}
    Holiday;                 !- Special Day Type

  RunPeriodControl:SpecialDays,
    Christmas,               !- Name
    December 25,             !- Start Date
    1,                       !- Duration {days}
    Holiday;                 !- Special Day Type

  RunPeriodControl:SpecialDays,
    Independence Day,        !- Name
    July 4,                  !- Start Date
    1,                       !- Duration {days}
    Holiday;                 !- Special Day Type

  RunPeriodControl:SpecialDays,
    MLK Day,                 !- Name
    3rd Monday in January,   !- Start Date
    1,                       !- Duration {days}
    Holiday;                 !- Special Day Type

  RunPeriodControl:SpecialDays,
    Presidents Day,          !- Name
    3rd Monday in February,  !- Start Date
    1,                       !- Duration {days}
    Holiday;                 !- Special Day Type

  RunPeriodControl:SpecialDays,
    Memorial Day,            !- Name
    Last Monday in May,      !- Start Date
    1,                       !- Duration {days}
    Holiday;                 !- Special Day Type

  RunPeriodControl:SpecialDays,
    Labor Day,               !- Name
    1st Monday in September, !- Start Date
    1,                       !- Duration {days}
    Holiday;                 !- Special Day Type

  RunPeriodControl:SpecialDays,
    Columbus Day,            !- Name
    2nd Monday in October,   !- Start Date
    1,                       !- Duration {days}
    Holiday;                 !- Special Day Type

  RunPeriodControl:SpecialDays,
    Thanksgiving,            !- Name
    4th Thursday in November,!- Start Date
    1,                       !- Duration {days}
    Holiday;                 !- Special Day Type

! Daylight Saving Period in US

  RunPeriodControl:DaylightSavingTime,
    1st Sunday in April,     !- Start Date
    Last Sunday in October;  !- End Date

  Material,
    INS-wall-R_13,           !- Name
    MediumRough,             !- Roughness
    0.0812,                  !- Thickness {m}
    0.045,                   !- Conductivity {W/m-K}
    265,                     !- Density {kg/m3}
    836.8,                   !- Specific Heat {J/kg-K}
    0.9,                     !- Thermal Absorptance
    0.7,                     !- Solar Absorptance
    0.7;                     !- Visible Absorptance

  Material,
    GP01 5/8  GYPSUM,        !- Name
    Smooth,                  !- Roughness
    0.015875,                !- Thickness {m}
    0.16,                    !- Conductivity {W/m-K}
    800,                     !- Density {kg/m3}
    1090,                    !- Specific Heat {J/kg-K}
    0.9,                     !- Thermal Absorptance
    0.7,                     !- Solar Absorptance
    0.7;                     !- Visible Absorptance

  Material,
    ROOFING - BUILT UP ROOFING - 3 / 8 IN,  !- Name
    VeryRough,               !- Roughness
    9.4999997E-03,           !- Thickness {m}
    0.1600000,               !- Conductivity {W/m-K}
    1121.290,                !- Density {kg/m3}
    1460.000,                !- Specific Heat {J/kg-K}
    0.9000000,               !- Thermal Absorptance
    0.7000000,               !- Solar Absorptance
    0.7000000;               !- Visible Absorptance

  Material,
    INS-Roof-R_15,           !- Name
    MediumRough,             !- Roughness
    0.1295,                  !- Thickness {m}
    0.049,                   !- Conductivity {W/m-K}
    265,                     !- Density {kg/m3}
    836.8,                   !- Specific Heat {J/kg-K}
    0.9,                     !- Thermal Absorptance
    0.7,                     !- Solar Absorptance
    0.7;                     !- Visible Absorptance

  Material,
    MAT-METAL,               !- Name
    MediumSmooth,            !- Roughness
    0.001524,                !- Thickness {m}
    45.006,                  !- Conductivity {W/m-K}
    7680,                    !- Density {kg/m3}
    418.4,                   !- Specific Heat {J/kg-K}
    0.9,                     !- Thermal Absorptance
    0.7,                     !- Solar Absorptance
    0.7;                     !- Visible Absorptance

  Material,
    MAT-CC05 8  HW CONCRETE, !- Name
    Rough,                   !- Roughness
    0.20321,                 !- Thickness {m}
    1.311,                   !- Conductivity {W/m-K}
    2240,                    !- Density {kg/m3}
    836.8,                   !- Specific Heat {J/kg-K}
    0.9,                     !- Thermal Absorptance
    0.7,                     !- Solar Absorptance
    0.7;                     !- Visible Absorptance

  Material,
    Ceiling Tiles 3/4 office,!- Name
    MediumSmooth,            !- Roughness
    0.01905,                 !- Thickness {m}
    5.7000000E-02,           !- Conductivity {W/m-K}
    288.0000,                !- Density {kg/m3}
    1339.000,                !- Specific Heat {J/kg-K}
    0.9000000,               !- Thermal Absorptance
    0.7000000,               !- Solar Absorptance
    0.7000000;               !- Visible Absorptance

  Material,
    MAT-CC05 4  MW CONCRETE, !- Name
    Rough,                   !- Roughness
    0.1000,                  !- Thickness {m}
    0.858,                   !- Conductivity {W/m-K}
    1968,                    !- Density {kg/m3}
    836.8,                   !- Specific Heat {J/kg-K}
    0.9,                     !- Thermal Absorptance
    0.7,                     !- Solar Absorptance
    0.7;                     !- Visible Absorptance

  Material,
    1.5  MW CONCRETE,        !- Name
    Rough,                   !- Roughness
    0.038,                   !- Thickness {m}
    0.858,                   !- Conductivity {W/m-K}
    1968,                    !- Density {kg/m3}
    836.8,                   !- Specific Heat {J/kg-K}
    0.9,                     !- Thermal Absorptance
    0.7,                     !- Solar Absorptance
    0.7;                     !- Visible Absorptance

  Material,
    Wood 6inch,              !- Name
    MediumSmooth,            !- Roughness
    0.15,                    !- Thickness {m}
    0.12,                    !- Conductivity {W/m-K}
    540.0000,                !- Density {kg/m3}
    1210,                    !- Specific Heat {J/kg-K}
    0.9000000,               !- Thermal Absorptance
    0.7000000,               !- Solar Absorptance
    0.7000000;               !- Visible Absorptance

  Material,
    4 inch prefab stone wall panel,  !- Name
    Smooth,                  !- Roughness
    0.1016,                  !- Thickness {m}
    0.858,                   !- Conductivity {W/m-K}
    1968,                    !- Density {kg/m3}
    836.8,                   !- Specific Heat {J/kg-K}
    0.9,                     !- Thermal Absorptance
    0.7,                     !- Solar Absorptance
    0.7;                     !- Visible Absorptance

  Material:AirGap,
    AIRSPACE - VERTICAL,     !- Name
    0.1700000;               !- Thermal Resistance {m2-K/W}

  Material,
    Very High Reflectivity Surface,  !- Name
    Smooth,                  !- Roughness
    0.0005,                  !- Thickness {m}
    237,                     !- Conductivity {W/m-K}
    2702,                    !- Density {kg/m3}
    903,                     !- Specific Heat {J/kg-K}
    0.90,                    !- Thermal Absorptance
    0.05,                    !- Solar Absorptance
    0.05;                    !- Visible Absorptance

  WindowMaterial:Glazing,
    Clear Acrylic Plastic,   !- Name
    SpectralAverage,         !- Optical Data Type
    ,                        !- Window Glass Spectral Data Set Name
    0.003,                   !- Thickness {m}
    0.92,                    !- Solar Transmittance at Normal Incidence
    0.05,                    !- Front Side Solar Reflectance at Normal Incidence
    0.05,                    !- Back Side Solar Reflectance at Normal Incidence
    0.92,                    !- Visible Transmittance at Normal Incidence
    0.05,                    !- Front Side Visible Reflectance at Normal Incidence
    0.05,                    !- Back Side Visible Reflectance at Normal Incidence
    0.00,                    !- Infrared Transmittance at Normal Incidence
    0.90,                    !- Front Side Infrared Hemispherical Emissivity
    0.90,                    !- Back Side Infrared Hemispherical Emissivity
    0.90;                    !- Conductivity {W/m-K}

  WindowMaterial:Glazing,
    Diffusing Acrylic Plastic,  !- Name
    SpectralAverage,         !- Optical Data Type
    ,                        !- Window Glass Spectral Data Set Name
    0.0022,                  !- Thickness {m}
    0.90,                    !- Solar Transmittance at Normal Incidence
    0.08,                    !- Front Side Solar Reflectance at Normal Incidence
    0.08,                    !- Back Side Solar Reflectance at Normal Incidence
    0.90,                    !- Visible Transmittance at Normal Incidence
    0.08,                    !- Front Side Visible Reflectance at Normal Incidence
    0.08,                    !- Back Side Visible Reflectance at Normal Incidence
    0.00,                    !- Infrared Transmittance at Normal Incidence
    0.90,                    !- Front Side Infrared Hemispherical Emissivity
    0.90,                    !- Back Side Infrared Hemispherical Emissivity
    0.90;                    !- Conductivity {W/m-K}

  Material:NoMass,
    MAT-SHEATH,              !- Name
    Rough,                   !- Roughness