Version,8.9.0;

! UnitaryHybridAC_IndirectEvapCooler.idf
!
! Basic file description:  This file models a small two zone restaurant
!
! Highlights:              Test the Unitary Hybrid AC model when used together with a second HVAC system. 
!
! Simulation Location/Run: Climate Zone 13, 3 design days, 1 run period,
!                          
!
! Location:                Climate zone 13, CA
!
! Design Days:              Climate Zone 13 Ann Clg .4% Condns DB=>MWB
!							Climate Zone 13 Ann Htg 99.6% Condns DB
!							Climate Zone 13 Ann Clg .4% Condns WB=>MDB
!                          
!
! Run Period (Weather File): Full Annual Simulation, 
!
! Run Control:             
!
! Building:                Fictional 2 zone restaurant. 
!
! Floor Area:              X m2
! Number of Stories:       1


Timestep,4;  !4;

SimulationControl,
  Yes,                     !- Do Zone Sizing Calculation
  Yes,                     !- Do System Sizing Calculation
  Yes,                     !- Do Plant Sizing Calculation
  No,                      !- Run Simulation for Sizing Periods
  Yes;                     !- Run Simulation for Weather File Run Periods

RunPeriod,
  ,                        !- Name
  1,                       !- Begin Month
  1,                       !- Begin Day of Month
  12,                      !- End Month
  31,                      !- End Day of Month
  Sunday,                  !- Day of Week for Start Day
  No,                      !- Use Weather File Holidays and Special Days
  No,                      !- Use Weather File Daylight Saving Period
  No,                      !- Apply Weekend Holiday Rule
  Yes,                     !- Use Weather File Rain Indicators
  Yes;                     !- Use Weather File Snow Indicators

SurfaceConvectionAlgorithm:Inside,TARP;

SurfaceConvectionAlgorithm:Outside,DOE-2;

HeatBalanceAlgorithm,ConductionTransferFunction;

SurfaceProperty:OtherSideConditionsModel,
  GapConvectionModel,      !- Name
  GapConvectionRadiation;  !- Type of Modeling

Sizing:Parameters,
  1.25, !- Heating Sizing Factor
  1.15, !- Cooling Sizing Factor
  ;                        !- Timesteps in Averaging Window

ConvergenceLimits,
  0, !5,                       !- Minimum System Timestep {minutes}
  20;                      !- Maximum HVAC Iterations

ShadowCalculation,
  AverageOverDaysInFrequency,  !- Calculation Method
  30;                      !- Calculation Frequency

Building,
  restaurant-full-service,    !- Name
  0,      !- North Axis {deg}
  City,                !- Terrain
  0.5, !0.04,                    !- Loads Convergence Tolerance Value
  0.5, !0.2,                     !- Temperature Convergence Tolerance Value {deltaC}
  FullInteriorAndExterior, !- Solar Distribution
  10; !25;                      !- Maximum Number of Warmup Days

ScheduleTypeLimits,
  Any Number;              !- Name

ScheduleTypeLimits,
  Fraction,                !- Name
  0.0,                     !- Lower Limit Value
  1.0,                     !- Upper Limit Value
  Continuous;              !- Numeric Type

ScheduleTypeLimits,
  Temperature,             !- Name
  -60,                     !- Lower Limit Value
  200,                     !- Upper Limit Value
  Continuous;              !- Numeric Type

ScheduleTypeLimits,
  On/Off,                  !- Name
  0,                       !- Lower Limit Value
  1,                       !- Upper Limit Value
  Discrete;                !- Numeric Type

ScheduleTypeLimits,
  Control Type,            !- Name
  0,                       !- Lower Limit Value
  4,                       !- Upper Limit Value
  Discrete;                !- Numeric Type

ScheduleTypeLimits,
  Humidity,                !- Name
  10,                      !- Lower Limit Value
  90,                      !- Upper Limit Value
  Continuous;              !- Numeric Type

ScheduleTypeLimits,
  Number;                  !- Name
! US National Holidays

RunPeriodControl:SpecialDays,
  New Years Day,           !- Name
  January 1,               !- Start Date
  1,                       !- Duration {days}
  Holiday;                 !- Special Day Type

RunPeriodControl:SpecialDays,
  Veterans Day,            !- Name
  November 11,             !- Start Date
  1,                       !- Duration {days}
  Holiday;                 !- Special Day Type

RunPeriodControl:SpecialDays,
  Christmas,               !- Name
  December 25,             !- Start Date
  1,                       !- Duration {days}
  Holiday;                 !- Special Day Type

RunPeriodControl:SpecialDays,
  Independence Day,        !- Name
  July 4,                  !- Start Date
  1,                       !- Duration {days}
  Holiday;                 !- Special Day Type

RunPeriodControl:SpecialDays,
  MLK Day,                 !- Name
  3rd Monday in January,   !- Start Date
  1,                       !- Duration {days}
  Holiday;                 !- Special Day Type

RunPeriodControl:SpecialDays,
  Presidents Day,          !- Name
  3rd Monday in February,  !- Start Date
  1,                       !- Duration {days}
  Holiday;                 !- Special Day Type

RunPeriodControl:SpecialDays,
  Memorial Day,            !- Name
  Last Monday in May,      !- Start Date
  1,                       !- Duration {days}
  Holiday;                 !- Special Day Type

RunPeriodControl:SpecialDays,
  Labor Day,               !- Name
  1st Monday in September, !- Start Date
  1,                       !- Duration {days}
  Holiday;                 !- Special Day Type

RunPeriodControl:SpecialDays,
  Columbus Day,            !- Name
  2nd Monday in October,   !- Start Date
  1,                       !- Duration {days}
  Holiday;                 !- Special Day Type

RunPeriodControl:SpecialDays,
  Thanksgiving,            !- Name
  4th Thursday in November,!- Start Date
  1,                       !- Duration {days}
  Holiday;                 !- Special Day Type


 ! The following Location and Design Day data are produced as possible from the indicated data source.
 ! Wind Speeds follow the indicated design conditions rather than traditional values (6.7 m/s heating, 3.35 m/s cooling)
 ! No special attempts at re-creating or determining missing data parts (e.g. Wind speed or direction)
 ! are done.  Therefore, you should look at the data and fill in any incorrect values as you desire.

 Site:Location,
  Climate Zone 13_CA_USA Design_Conditions,     !- Location Name
      36.80,     !- Latitude {N+ S-}
    -119.70,     !- Longitude {W- E+}
      -8.00,     !- Time Zone Relative to GMT {GMT+/-}
     100.00;     !- Elevation {m}

 !  WMO=723890 Time Zone=NAP: (GMT-08:00) Pacific Time (US & Canada); Tijuana
 !  Data Source=ASHRAE 2009 Annual Design Conditions
 RunPeriodControl:DaylightSavingTime,
   2nd Sunday in March,    !- StartDate
   2nd Sunday in November;    !- EndDate

 ! Using Design Conditions from "Climate Design Data 2009 ASHRAE Handbook"
 ! Climate Zone 13_CA_USA Extreme Annual Wind Speeds, 1%=8.1m/s, 2.5%=7.3m/s, 5%=6.4m/s
 ! Climate Zone 13_CA_USA Extreme Annual Temperatures, Max Drybulb=-1.9°C Min Drybulb=42.1°C

 ! Climate Zone 13_CA_USA Annual Heating Design Conditions Wind Speed=1.2m/s Wind Dir=80
 ! Coldest Month=DEC
 ! Climate Zone 13_CA_USA Annual Heating 99.6%, MaxDB=-0.3°C
 SizingPeriod:DesignDay,
  Climate Zone 13 Ann Htg 99.6% Condns DB,     !- Name
         12,      !- Month
         21,      !- Day of Month
  WinterDesignDay,!- Day Type
       -0.3,      !- Maximum Dry-Bulb Temperature {C}
        0.0,      !- Daily Dry-Bulb Temperature Range {C}
 DefaultMultipliers, !- Dry-Bulb Temperature Range Modifier Type
           ,      !- Dry-Bulb Temperature Range Modifier Schedule Name
    Wetbulb,      !- Humidity Condition Type
       -0.3,      !- Wetbulb at Maximum Dry-Bulb {C}
           ,      !- Humidity Indicating Day Schedule Name
           ,      !- Humidity Ratio at Maximum Dry-Bulb {kgWater/kgDryAir}
           ,      !- Enthalpy at Maximum Dry-Bulb {J/kg}
           ,      !- Daily Wet-Bulb Temperature Range {deltaC}
    100129.,      !- Barometric Pressure {Pa}
        1.2,      !- Wind Speed {m/s} design conditions vs. traditional 6.71 m/s (15 mph)
         80,      !- Wind Direction {Degrees; N=0, S=180}
         No,      !- Rain {Yes/No}
         No,      !- Snow on ground {Yes/No}
         No,      !- Daylight Savings Time Indicator
  ASHRAEClearSky, !- Solar Model Indicator
           ,      !- Beam Solar Day Schedule Name
           ,      !- Diffuse Solar Day Schedule Name
           ,      !- ASHRAE Clear Sky Optical Depth for Beam Irradiance (taub)
           ,      !- ASHRAE Clear Sky Optical Depth for Diffuse Irradiance (taud)
       0.00;      !- Clearness {0.0 to 1.1}

 ! Climate Zone 13 Annual Cooling Design Conditions Wind Speed=3.7m/s Wind Dir=300
 ! Hottest Month=JUL
 ! Climate Zone 13_CA_USA Annual Cooling (DB=>MWB) .4%, MaxDB=39.8°C MWB=21.8°C

 SizingPeriod:DesignDay,
  Climate Zone 13 Ann Clg .4% Condns DB=>MWB,     !- Name
          7,      !- Month
         21,      !- Day of Month
  SummerDesignDay,!- Day Type
       39.8,      !- Maximum Dry-Bulb Temperature {C}
       16.4,      !- Daily Dry-Bulb Temperature Range {C}
 DefaultMultipliers, !- Dry-Bulb Temperature Range Modifier Type
           ,      !- Dry-Bulb Temperature Range Modifier Schedule Name
    Wetbulb,      !- Humidity Condition Type
       21.8,      !- Wetbulb at Maximum Dry-Bulb {C}
           ,      !- Humidity Indicating Day Schedule Name
           ,      !- Humidity Ratio at Maximum Dry-Bulb {kgWater/kgDryAir}
           ,      !- Enthalpy at Maximum Dry-Bulb {J/kg}
           ,      !- Daily Wet-Bulb Temperature Range {deltaC}
    100129.,      !- Barometric Pressure {Pa}
        3.7,      !- Wind Speed {m/s} design conditions vs. traditional 3.35 m/s (7mph)
        300,      !- Wind Direction {Degrees; N=0, S=180}
         No,      !- Rain {Yes/No}
         No,      !- Snow on ground {Yes/No}
         No,      !- Daylight Savings Time Indicator
       ASHRAETau, !- Solar Model Indicator
           ,      !- Beam Solar Day Schedule Name
           ,      !- Diffuse Solar Day Schedule Name
      0.428,      !- ASHRAE Clear Sky Optical Depth for Beam Irradiance (taub)
      2.152;      !- ASHRAE Clear Sky Optical Depth for Diffuse Irradiance (taud)

 ! Climate Zone 13_CA_USA Annual Cooling (WB=>MDB) .4%, MDB=36.7°C WB=23.2°C
 SizingPeriod:DesignDay,
  Climate Zone 13 Ann Clg .4% Condns WB=>MDB,     !- Name
          7,      !- Month
         21,      !- Day of Month
  SummerDesignDay,!- Day Type
       36.7,      !- Maximum Dry-Bulb Temperature {C}
       16.4,      !- Daily Dry-Bulb Temperature Range {C}
 DefaultMultipliers, !- Dry-Bulb Temperature Range Modifier Type
           ,      !- Dry-Bulb Temperature Range Modifier Schedule Name
    Wetbulb,      !- Humidity Condition Type
       23.2,      !- Wetbulb at Maximum Dry-Bulb {C}
           ,      !- Humidity Indicating Day Schedule Name
           ,      !- Humidity Ratio at Maximum Dry-Bulb {kgWater/kgDryAir}
           ,      !- Enthalpy at Maximum Dry-Bulb {J/kg}
           ,      !- Daily Wet-Bulb Temperature Range {deltaC}
    100129.,      !- Barometric Pressure {Pa}
        3.7,      !- Wind Speed {m/s} design conditions vs. traditional 3.35 m/s (7mph)
        300,      !- Wind Direction {Degrees; N=0, S=180}
         No,      !- Rain {Yes/No}
         No,      !- Snow on ground {Yes/No}
         No,      !- Daylight Savings Time Indicator
       ASHRAETau, !- Solar Model Indicator
           ,      !- Beam Solar Day Schedule Name
           ,      !- Diffuse Solar Day Schedule Name
      0.428,      !- ASHRAE Clear Sky Optical Depth for Beam Irradiance (taub)
      2.152;      !- ASHRAE Clear Sky Optical Depth for Diffuse Irradiance (taud)



  Foundation:Kiva:Settings,
    1.298,          !- Soil Conductivity
    1842,           !- Soil Density
    419,            !- Soil Specific Heat
    0.9,            !- Ground Solar Absorptivity
    0.9,            !- Ground Thermal Absorptivity
    0.03,           !- Ground Surface Roughness
    40,             !- Far-Field Width
    GroundWater,    !- Deep-Ground Boundary Condition
    40,             !- Deep-Ground Depth
    ,               !- Minimum Cell Dimension
    ,               !- Maximum Cell Growth Coefficient
    Timestep;       !- Simulation Timestep

  Foundation:Kiva,
    Slab Foundation,         !- Name
    ,                        !- Interior Horizontal Insulation Material Name
    ,                        !- Interior Horizontal Insulation Depth {m}
    ,                        !- Interior Horizontal Insulation Width {m}
    ,                        !- Interior Vertical Insulation Material Name
    ,                        !- Interior Vertical Insulation Depth
    ,                        !- Exterior Horizontal Insulation Material Name
    ,                        !- Exterior Horizontal Insulation Depth {m}
    ,                        !- Exterior Horizontal Insulation Width {m}
    ,                     !- Exterior Vertical Insulation Material Name
    ,                     !- Exterior Vertical Insulation Depth
    0.0,                     !- Wall Height Above Grade
    0.0,                     !- Wall Depth Below Slab
    Slab Footing;            !- Footer Wall Construction




Material,
  Roof Continuous Insulation,  !- Name
  VeryRough,               !- Roughness
  0.067453344,  !- Thickness {m}
  0.0288,  !- Conductivity {W/m-K}
  32,                      !- Density {kg/m3}(2013 ASHRAE Handbook - Fundamentals Section 26 Table 1 - Extruded polystyrene, smooth skin - aged 180 days)
  1465;                     !- Specific Heat {J/kg-K}(2013 ASHRAE Handbook - Fundamentals Section 26 Table 1 - Extruded polystyrene, smooth skin - aged 180 days)

Material,
  Roof Cavity Effective Insulation,  !- Name
  VeryRough,               !- Roughness
  0.0001,  !- Thickness {m}
  0.0459,  !- Conductivity {W/m-K}
  8.17,                      !- Density {kg/m3}(2013 ASHRAE Handbook - Fundamentals Section 26 Table 1 - Glass-fiber batts)
  837;                     !- Specific Heat {J/kg-K}(2013 ASHRAE Handbook - Fundamentals Section 26 Table 1 - Glass-fiber batts)

Construction,
  Exterior Roof,           !- Name
  Roof Membrane,  !- Layer
  Roof Continuous Insulation,  !- Layer
  Metal Decking;  !- Layer

Construction,
  Radiant Exterior Roof,  !- Name
  Roof Membrane,  !- Layer
  Roof Continuous Insulation,  !- Layer
  Metal Decking;  !- Layer




Material,
  Wall Continuous Insulation,  !- Name
  MediumSmooth,               !- Roughness
  0.033473088,  !- Thickness {m}
  0.0288,  !- Conductivity {W/m-K}
  32,                      !- Density {kg/m3}(2013 ASHRAE Handbook - Fundamentals Section 26 Table 1 - Extruded polystyrene, smooth skin - aged 180 days)
  1465;                     !- Specific Heat {J/kg-K}(2013 ASHRAE Handbook - Fundamentals Section 26 Table 1 - Extruded polystyrene, smooth skin - aged 180 days)

Material,
  Wall Cavity Effective Insulation,  !- Name
  VeryRough,               !- Roughness
  0.08889999999999999,  !- Thickness {m}
  0.6362709617369219,  !- Conductivity {W/m-K}
  8.17,                      !- Density {kg/m3}(2013 ASHRAE Handbook - Fundamentals Section 26 Table 1 - Glass-fiber batts)
  837;                     !- Specific Heat {J/kg-K}(2013 ASHRAE Handbook - Fundamentals Section 26 Table 1 - Glass-fiber batts)

Construction,
  Exterior Wall,           !- Name
  Stucco,  !- Layer
  Wall Continuous Insulation,  !- Layer
  Gypsum 5/8in;  !- Layer

Construction,
  Basement Wall,           !- Name
  Gypsum 5/8in,   !- Outside Layer
  Concrete HW Solid 8in;  !- Layer 2


Construction,
  Interior Floor,          !- Name
  Concrete MW Solid 4in,  !- Outside Layer
  Carpet;                  !- Layer 2

Construction,
  Radiant Interior Floor,  !- Name
  Concrete MW Solid 4in,  !- Layer 2
  Carpet;                  !- Layer 3

Construction,
  Soffit Floor,            !- Name
  Floor Insulation,    !- Layer 1
  Concrete HW Solid 8in,  !- Layer 2
  Carpet;                  !- Layer 3

Construction,
  Interior Ceiling,        !- Name
  Carpet,                  !- Outside Layer
  Concrete MW Solid 4in;  !- Layer 2

Construction,
  Radiant Interior Ceiling,  !- Name
  Carpet,                    !- Outside Layer
  Concrete MW Solid 4in;  !- Layer 2

Construction,
  Attic Floor,             !- Name
  Gypsum 5/8in,           !- Outside Layer
  Plywood;                !- Layer 2

Construction,
  Radiant Attic Floor,     !- Name
  Gypsum 5/8in,           !- Outside Layer
  Plywood;                !- Layer 2

Construction,
  Interior Ceiling To Attic,  !- Name
  Plywood,                !- Outside Layer
  Gypsum 5/8in;           !- Layer 2


Construction,
  Radiant Interior Ceiling To Attic,  !- Name
  Plywood,                !- Outside Layer
  Gypsum 5/8in;           !- Layer 2


Construction,
  Exterior Floor,          !- Name
  Concrete HW Solid 6in,  !- Outside Layer
  Carpet;                  !- Layer 2

Construction,
  Exterior Slab,          !- Name
  Concrete HW Solid 6in,  !- Outside Layer
  Carpet;                  !- Layer 2

Construction,
  Exterior Floor Slab,     !- Name
  Concrete HW Solid 8in;  !- Outside Layer

Construction,
  Slab Footing,    !- Name
  Concrete NW Solid 6in;         !- Outside Layer


Construction,
  MetalSlabDoor, !- Name {}
  Metal Door, !- Outside Layer {}
  Air-gap:0.1300, !- Layer 2 {}
  Metal Door; !- Layer 3 {}

Construction,
  Wood Door,           !- Name
  Wood Door Panel;     !- Outside Layer

Construction,
  Overhead Door,           !- Name
  Overhead Door Panel;     !- Outside Layer


Construction,
  Exterior Window,         !- Name
  Theoretical Glazing;     !- Outside Layer

Construction,
  Glass Door,         !- Name
  Clear Glass;     !- Outside Layer




Material,
  Roof Membrane, !- Name {}
  VeryRough, !- Roughness {}
  0.0095, !- Thickness {m}
  0.16, !- Conductivity {W/m-K}
  1121.29, !- Density {kg/m3}
  1460.0, !- Specific Heat {J/kg-K}
  0.85, !- Thermal Absorptance
  0.7, !- Solar Absorptance
  0.7; !- Visible Absorptance

Material,
  Metal Decking,           !- Name
  MediumSmooth,            !- Roughness
  0.0015,                  !- Thickness {m}
  45,        !- Conductivity {W/m-K}
  7689,      !- Density {kg/m3}
  418,       !- Specific Heat {J/kg-K}
  0.9000,                  !- Thermal Absorptance
  0.7000,                  !- Solar Absorptance
  0.3000;                  !- Visible Absorptance

Material,
  Metal Roof,              !- Name
  Smooth,                  !- Roughness
  0.0015,                  !- Thickness {m}
  45,        !- Conductivity {W/m-K}
  7689,      !- Density {kg/m3}
  418,       !- Specific Heat {J/kg-K}
  0.85,   !- Thermal Absorptance
  0.7,  !- Solar Absorptance
  0.7;  !- Visible Absorptance

Material,
  Gypsum 5/8in,           !- Name
  MediumSmooth,            !- Roughness
  0.016,                   !- Thickness {m}
  0.1622,                  !- Conductivity {W/m-K}
  800,                     !- Density {kg/m3}
  1090,                    !- Specific Heat {J/kg-K}
  0.9,                     !- Thermal Absorptance
  0.7,                     !- Solar Absorptance
  0.7;                     !- Visible Absorptance

Material,
  Concrete MW Solid Grouted 8in,  !- Name
  Rough,                   !- Roughness
  0.2032,                  !- Thickness {m}
  1.32,  !- Conductivity {W/m-K}
  1968,  !- Density {kg/m3}
  836.8,  !- Specific Heat {J/kg-K}
  0.9,                     !- Thermal Absorptance
  0.7,                     !- Solar Absorptance
  0.2;                     !- Visible Absorptance

Material,
  Concrete MW Solid Grouted 6in,  !- Name
  Rough,                   !- Roughness
  0.1524,                  !- Thickness {m}
  1.32,  !- Conductivity {W/m-K}
  1968,  !- Density {kg/m3}
  836.8,  !- Specific Heat {J/kg-K}
  0.9,                     !- Thermal Absorptance
  0.7,                     !- Solar Absorptance
  0.2;                     !- Visible Absorptance

Material,
  Asphalt Shingles,    !- Name
  VeryRough,               !- Roughness
  0.0032,                  !- Thickness {m}
  0.04,                    !- Conductivity {W/m-K}
  1120,                    !- Density {kg/m3}
  1260;                    !- Specific Heat {J/kg-K}

Material,
  Wood Shingles,       !- Name
  VeryRough,               !- Roughness
  0.0064,                  !- Thickness {m}
  0.04,                    !- Conductivity {W/m-K}
  592,                     !- Density {kg/m3}
  1300;                    !- Specific Heat {J/kg-K}

Material,
  Tile,       !- Name
  VeryRough,               !- Roughness
  0.0127,                  !- Thickness {m}
  1.59,                    !- Conductivity {W/m-K}
  1920,                    !- Density {kg/m3}
  1260;                    !- Specific Heat {J/kg-K}


Material,
  Gypsum 1/2in,           !- Name
  MediumSmooth,            !- Roughness
  0.0127,                   !- Thickness {m}
  0.1622,                  !- Conductivity {W/m-K}
  800,                     !- Density {kg/m3}
  1090,                    !- Specific Heat {J/kg-K}
  0.9,                     !- Thermal Absorptance
  0.7,                     !- Solar Absorptance
  0.7;                     !- Visible Absorptance

Material,
  Stucco,           !- Name
  Smooth,                  !- Roughness
  0.01015,                 !- Thickness {m}
  0.72,                    !- Conductivity {W/m-K}
  1856,                    !- Density {kg/m3}
  840,                     !- Specific Heat {J/kg-K}
  0.9,                     !- Thermal Absorptance
  0.7,                     !- Solar Absorptance
  0.7;                     !- Visible Absorptance

Material,
  Metal Siding,          !- Name
  Smooth,            !- Roughness
  0.0015,                    !- Thickness {m}
  45,         !- Conductivity {W/m-K}
  7689,       !- Density {kg/m3}
  418,        !- Specific Heat {J/kg-K}
  0.9000000,               !- Thermal Absorptance
  0.7000000,               !- Solar Absorptance
  0.7000000;               !- Visible Absorptance

Material,
  Wood Siding,         !- Name
  MediumSmooth,            !- Roughness
  0.0127,                  !- Thickness {m}
  0.09,                    !- Conductivity {W/m-K}
  592,                     !- Density {kg/m3}
  1170;                    !- Specific Heat {J/kg-K}

Material,
  Concrete NW Solid 6in,  !- Name
  Rough,                   !- Roughness
  0.1524,                  !- Thickness {m}
  2.3075,  !- Conductivity {W/m-K}
  1968,  !- Density {kg/m3}
  836.8,  !- Specific Heat {J/kg-K}
  0.9,                     !- Thermal Absorptance
  0.7,                     !- Solar Absorptance
  0.2;                     !- Visible Absorptance

Material,
  Concrete NW Solid 8in,  !- Name
  Rough,                   !- Roughness
  0.2032,                  !- Thickness {m}
  2.3075,  !- Conductivity {W/m-K}
  1968,  !- Density {kg/m3}
  836.8,  !- Specific Heat {J/kg-K}
  0.9,                     !- Thermal Absorptance
  0.7,                     !- Solar Absorptance
  0.2;                     !- Visible Absorptance

Material,
  Concrete MW Partially Grouted 8in,  !- Name
  Rough,                   !- Roughness
  0.2032,                  !- Thickness {m}
  0.935,  !- Conductivity {W/m-K}
  1968,  !- Density {kg/m3}
  836.8,  !- Specific Heat {J/kg-K}
  0.9,                     !- Thermal Absorptance
  0.7,                     !- Solar Absorptance
  0.2;                     !- Visible Absorptance

Material,
  Concrete HW Solid 8in,  !- Name
  Rough,                   !- Roughness
  0.2032,                  !- Thickness {m}
  1.311,  !- Conductivity {W/m-K}
  2240,  !- Density {kg/m3}
  836.8,  !- Specific Heat {J/kg-K}
  0.9000,                  !- Thermal Absorptance
  0.7000,                  !- Solar Absorptance
  0.7000;                  !- Visible Absorptance

Material,
  Brick Veneer,          !- Name
  MediumRough,             !- Roughness
  0.1016,                  !- Thickness {m}
  0.89,        !- Conductivity {W/m-K}
  1920,      !- Density {kg/m3}
  790,       !- Specific Heat {J/kg-K}
  0.9,                     !- Thermal Absorptance
  0.7,                     !- Solar Absorptance
  0.7;                     !- Visible Absorptance

Material,
  Concrete Block Veneer,  !- Name
  MediumRough,             !- Roughness
  0.1016,                  !- Thickness {m}
  0.53,                    !- Conductivity {W/m-K}
  1280,                    !- Density {kg/m3}
  840;                     !- Specific Heat {J/kg-K}

Material,
  Stone Slab,  !- Name
  MediumRough,             !- Roughness
  0.051,                   !- Thickness {m}
  1.14,                    !- Conductivity {W/m-K}
  1920,                    !- Density {kg/m3}
  900;                     !- Specific Heat {J/kg-K}

Material,
  Spandrel Glass,  !- Name
  Smooth,                  !- Roughness
  0.0064,                  !- Thickness {m}
  0.99,                    !- Conductivity {W/m-K}
  2528,                    !- Density {kg/m3}
  880;                     !- Specific Heat {J/kg-K}

Material:AirGap,
  Air Space,  !- Name
  0.16;                    !- Thermal Resistance {m2-K/W}

Material,
  Granite 10in,  !- Name
  MediumRough,             !- Roughness
  0.254,                   !- Thickness {m}
  4.3,                     !- Conductivity {W/m-K}
  2880,                    !- Density {kg/m3}
  790;                     !- Specific Heat {J/kg-K}





Material,
  Wood 6in,          !- Name
  MediumSmooth,            !- Roughness
  0.15,                    !- Thickness {m}
  0.12,         !- Conductivity {W/m-K}
  540,       !- Density {kg/m3}
  1210,        !- Specific Heat {J/kg-K}
  0.9000000,               !- Thermal Absorptance
  0.7000000,               !- Solar Absorptance
  0.7000000;               !- Visible Absorptance

Material,
  Concrete MW Solid 4in,  !- Name
  Rough,                   !- Roughness
  0.1016,                  !- Thickness {m}
  0.858,  !- Conductivity {W/m-K}
  1968,  !- Density {kg/m3}
  836.8,  !- Specific Heat {J/kg-K}
  0.9,                     !- Thermal Absorptance
  0.7,                     !- Solar Absorptance
  0.2;                     !- Visible Absorptance

Material,
  Concrete HW Solid 6in, !- Name
  Rough,                   !- Roughness
  0.1524,                  !- Thickness {m}
  1.311,  !- Conductivity {W/m-K}
  2240,  !- Density {kg/m3}
  836.8,  !- Specific Heat {J/kg-K}
  0.9000,                  !- Thermal Absorptance
  0.7000,                  !- Solar Absorptance
  0.7000;                  !- Visible Absorptance

Material,
  Plywood,                !- Name
  MediumSmooth,            !- Roughness
  1.9099999E-02,           !- Thickness {m}
  0.12,         !- Conductivity {W/m-K}
  540,       !- Density {kg/m3}
  1210,        !- Specific Heat {J/kg-K}
  0.9000000,               !- Thermal Absorptance
  0.7800000,               !- Solar Absorptance
  0.7800000;               !- Visible Absorptance

Material,
  Plaster 1/4in,           !- Name
  MediumSmooth,            !- Roughness
  0.00635,                 !- Thickness {m}
  0.58,                    !- Conductivity {W/m-K}
  800,                     !- Density {kg/m3}
  1090,                    !- Specific Heat {J/kg-K}
  0.9,                     !- Thermal Absorptance
  0.7,                     !- Solar Absorptance
  0.7;                     !- Visible Absorptance

Material,
  Rigid Insulation 1in,    !- Name
  MediumSmooth,            !- Roughness
  0.0254,                  !- Thickness {m}
  0.0288,                  !- Conductivity {W/m-K}
  29,                      !- Density {kg/m3}
  1210;                    !- Specific Heat {J/kg-K}

Material,
  AtticFloor Insulation, !- Name {}
  MediumRough, !- Roughness {}
  0.2377, !- Thickness {m}
  0.045, !- Conductivity {W/m-K}
  265.0, !- Density {kg/m3}
  836.8, !- Specific Heat {J/kg-K}
  0.9, !- Thermal Absorptance {}
  0.7, !- Solar Absorptance {}
  0.7; !- Visible Absorptance {}

Material,
  Floor Insulation,  !- Name
  MediumRough,  !- Roughness
  0.0795,  !- Thickness
  0.0450,  !- Conductivity
  265.0000,  !- Density
  836.8000,  !- Specific Heat
  0.9000,  !- Thermal Absorptance
  0.7000,  !- Solar Absorptance
  0.7000;  !- Visible Absorptance

Material,
  Carpet,                  !- Name
  VeryRough,               !- Roughness
  0.0127,                  !- Thickness {m}
  0.06,                    !- Conductivity {W/m-K}
  288,                     !- Density {kg/m3}
  1380,                    !- Specific Heat {J/kg-K}
  0.9,                     !- Thermal Absorptance
  0.7,                     !- Solar Absorptance
  0.8;                     !- Visible Absorptance

Material,
  Wall Insulation 4in R-19,    !- Name
  MediumSmooth,               !- Roughness
  0.1,                     !- Thickness {m}
  0.0288,                  !- Conductivity {W/m-K}
  29,                      !- Density {kg/m3}
  1210;                    !- Specific Heat {J/kg-K}

Material,
  Concrete HW Solid 2in White,  !- Name
  MediumRough,             !- Roughness
  5.0901599E-02,           !- Thickness {m}
  1.729577,                !- Conductivity {W/m-K}
  2242.585,                !- Density {kg/m3}
  836.8,                   !- Specific Heat {J/kg-K}
  0.90,                    !- Thermal Absorptance
  0.30,                    !- Solar Absorptance
  0.30;                    !- Visible Absorptance

Material,
  Drop-Ceiling Acoustic Tile,       !- Name
  MediumSmooth,            !- Roughness
  0.0191,                  !- Thickness {m}
  0.06,                    !- Conductivity {W/m-K}
  368,                     !- Density {kg/m3}
  590,                     !- Specific Heat {J/kg-K}
  0.90,                    !- Thermal Absorptance
  0.30,                    !- Solar Absorptance
  0.30;                    !- Visible Absorptance

Material,
  Perimeter Buffer,       !- Name
  MediumSmooth,            !- Roughness
  0.001,                  !- Thickness {m}