!- ---------------------------------------------------------------------------------------------------------
!- The Residential Prototype Building Models were developed by Pacific Northwest National Laboratory (PNNL),
!- under contract with the U.S. Department of Energy (DOE).
!- The purpose of developing these building prototype models is to measure energy saving impacts from
!- various residential energy codes. Detailed model development descriptions are documented in the following PNNL reports:
!-
!- 1. Salcido V.R., Y. Chen, and Y. Xie. 2021. Energy Savings Analysis: 2021 IECC for Residential Buildings. PNNL-31018. Richland, WA: Pacific Northwest National Laboratory.
!- 2. Taylor T, Mendon V, Zhao M, Liu B. Energy Savings Analysis: 2018 IECC for Residential Buildings. Richland, WA: Pacific Northwest National Laboratory.
!- 3. Mendon V.V., A. Selvacanabady, M. Zhao, and Z.T. Taylor. 2015. National Cost-Effectiveness Analysis of the Residential Provisions of the 2015 IECC. PNNL-24240. Richland, WA: Pacific Northwest National Laboratory.
!- 4. Lucas R.G., V.V. Mendon, and S. Goel. 2012. Energy Use Savings for a Typical New Residential Dwelling Unit Based on the 2009 and 2012 IECC as Compared to the 2006 IECC. PNNL-SA-88603. Richland, WA: Pacific Northwest National Laboratory.
!-
!- ---------------------------------------------------------------------------------------------------------
! GPARM parameters as run:
!    ID = US+SF+CZ4A+hp+crawlspace+IECC_2006
!    weatherfile = USA_NY_New.York-John.F.Kennedy.Intl.AP.744860_TMY3.epw
!    climate_zone = Climate Zone 4
!    moisture_regime = Moist
!    humidity_designation = Not Warm-Humid
!    tropical_designation = Not Tropical
!    bldg_type = Single-Family
!    fndn_type = Crawlspace
!    system_tag = Heat Pump
!    code = IECC_2006
!    permits = 21280.7599039262
!    vent_fan_efficacy = 1.4
!    cfm25 = 18.75
!    afn_control = MultizoneWithDistribution
!    is_duct_base = no
!    leakage_ratio = 0.297
!    dhw_type =
!    TEMPLATE_PATH = template/v9.5

  Version,24.1;

! added VRF system

  Schedule:Compact,
    VRFCondAvailSched,       !- Name
    Fraction,                !- Schedule Type Limits Name
    Through: 12/31,          !- Field 1
    For: AllDays,            !- Field 2
    Until: 12:00,1.0,        !- Field 3
    Until: 13:00,1.0,        !- Field 5
    Until: 24:00,1.0;        !- Field 7

!-   ===========  ALL OBJECTS IN CLASS: AIRCONDITIONER:VARIABLEREFRIGERANTFLOW ===========

  AirConditioner:VariableRefrigerantFlow:FluidTemperatureControl,
    VRF Heat Pump,           !- Heat Pump Name
    VRFCondAvailSched,       !- Availability Schedule Name
    VRF Heat Pump TU List,   !- Zone Terminal Unit List Name
    R410A,                   !- Refrigerant Type
    10023,                   !- Rated Evaporative Capacity {W}
    0.2931,                  !- Rated Compressor Power Per Unit of Rated Evaporative Capacity {dimensionless}
    -5,                      !- Minimum Outdoor Air Temperature in Cooling Mode {C}
    43,                      !- Maximum Outdoor Air Temperature in Cooling Mode {C}
    -20,                     !- Minimum Outdoor Air Temperature in Heating Mode {C}
    18,                      !- Maximum Outdoor Air Temperature in Heating Mode {C}
    7.6,                     !- Reference Outdoor Unit Superheating {deltaC}
    7.7,                     !- Reference Outdoor Unit Subcooling {deltaC}
    VariableTemp,            !- Refrigerant Temperature Control Algorithm for Indoor Unit
    10,                      !- Reference Evaporating Temperature for Indoor Unit {C}
    38.9,                    !- Reference Condensing Temperature for Indoor Unit {C}
    6,                       !- Variable Evaporating Temperature Minimum for Indoor Unit {C}
    13,                      !- Variable Evaporating Temperature Maximum for Indoor Unit {C}
    35,                      !- Variable Condensing Temperature Minimum for Indoor Unit {C}
    42,                      !- Variable Condensing Temperature Maximum for Indoor Unit {C}
    0.01197,                 !- Outdoor Unit Fan Power Per Unit of Rated Evaporative Capacity {dimensionless}
    0.000169511,             !- Outdoor Unit Fan Flow Rate Per Unit of Rated Evaporative Capacity {m3/s-W}
    OUEvapTempCurve,         !- Outdoor Unit Evaporating Temperature Function of Superheating Curve Name
    OUCondTempCurve,         !- Outdoor Unit Condensing Temperature Function of Subcooling Curve Name
    0.0508,                  !- Diameter of Main Pipe Connecting Outdoor Unit to the First Branch Joint {m}
    10,                      !- Length of Main Pipe Connecting Outdoor Unit to the First Branch Joint {m}
    12,                      !- Equivalent Length of Main Pipe Connecting Outdoor Unit to the First Branch Joint {m}
    5,                       !- Height Difference Between Outdoor Unit and Indoor Units {m}
    0.02,                    !- Main Pipe Insulation Thickness {m}
    0.032,                   !- Main Pipe Insulation Thermal Conductivity {W/m-K}
    33,                      !- Crankcase Heater Power per Compressor {W}
    1,                       !- Number of Compressors {dimensionless}
    0.33,                    !- Ratio of Compressor Size to Total Compressor Capacity {W/W}
    7,                       !- Maximum Outdoor Dry-Bulb Temperature for Crankcase Heater {C}
    ,                        !- Defrost Strategy
    ,                        !- Defrost Control
    ,                        !- Defrost Energy Input Ratio Modifier Function of Temperature Curve Name
    ,                        !- Defrost Time Period Fraction
    ,                        !- Resistive Defrost Heater Capacity {W}
    ,                        !- Maximum Outdoor Dry-bulb Temperature for Defrost Operation {C}
    4500000,                 !- Compressor maximum delta Pressure {Pa}
    8,                       !- Number of Compressor Loading Index Entries
    1319,                    !- Compressor Speed at Loading Index 1 {rev/min}
    Spd1Cooling,             !- Loading Index 1 Evaporative Capacity Multiplier Function of Temperature Curve Name
    Spd1Power,               !- Loading Index 1 Compressor Power Multiplier Function of Temperature Curve Name
    1920,                    !- Compressor Speed at Loading Index 2 {rev/min}
    Spd2Cooling,             !- Loading Index 2 Evaporative Capacity Multiplier Function of Temperature Curve Name
    Spd2Power,               !- Loading Index 2 Compressor Power Multiplier Function of Temperature Curve Name
    2580,                    !- Compressor Speed at Loading Index 3 {rev/min}
    Spd3Cooling,             !- Loading Index 3 Evaporative Capacity Multiplier Function of Temperature Curve Name
    Spd3Power,               !- Loading Index 3 Compressor Power Multiplier Function of Temperature Curve Name
    3480,                    !- Compressor Speed at Loading Index 4 {rev/min}
    Spd4Cooling,             !- Loading Index 4 Evaporative Capacity Multiplier Function of Temperature Curve Name
    Spd4Power,               !- Loading Index 4 Compressor Power Multiplier Function of Temperature Curve Name
    4380,                    !- Compressor Speed at Loading Index 5 {rev/min}
    Spd5Cooling,             !- Loading Index 5 Evaporative Capacity Multiplier Function of Temperature Curve Name
    Spd5Power,               !- Loading Index 5 Compressor Power Multiplier Function of Temperature Curve Name
    4800,                    !- Compressor Speed at Loading Index 6 {rev/min}
    Spd6Cooling,             !- Loading Index 6 Evaporative Capacity Multiplier Function of Temperature Curve Name
    Spd6Power,               !- Loading Index 6 Compressor Power Multiplier Function of Temperature Curve Name
    5730,                    !- Compressor Speed at Loading Index 7 {rev/min}
    Spd7Cooling,             !- Loading Index 7 Evaporative Capacity Multiplier Function of Temperature Curve Name
    Spd7Power,               !- Loading Index 7 list
    6900,                    !- Compressor Speed at Loading Index 8 {rev/min}
    Spd8Cooling,             !- Loading Index 8 Evaporative Capacity Multiplier Function of Temperature Curve Name
    Spd8Power;               !- Loading Index 8 Compressor Power Multiplier Function of Temperature Curve Name

  Curve:Quadratic,
    OUEvapTempCurve,         !- Name
    -5.0464,                 !- Coefficient1 Constant
    1.1194,                  !- Coefficient2 x
    -0.0017,                 !- Coefficient3 x**2
    0,                       !- Minimum Value of x
    50,                      !- Maximum Value of x
    ,                        !- Minimum Curve Output
    ,                        !- Maximum Curve Output
    Temperature,             !- Input Unit Type for X
    Temperature;             !- Output Unit Type

  Curve:Quadratic,
    OUCondTempCurve,         !- Name
    -0.0269,                 !- Coefficient1 Constant
    1.0814,                  !- Coefficient2 x
    -0.0012,                 !- Coefficient3 x**2
    0,                       !- Minimum Value of x
    30,                      !- Maximum Value of x
    ,                        !- Minimum Curve Output
    ,                        !- Maximum Curve Output
    Temperature,             !- Input Unit Type for X
    Temperature;             !- Output Unit Type

  Curve:Biquadratic,
    MinSpdCooling,           !- Name
    0.1407,                  !- Coefficient1 Constant
    -0.0006872,              !- Coefficient2 x
    -0.00001269,             !- Coefficient3 x**2
    0.005913,                !- Coefficient4 y
    0.00007356,              !- Coefficient5 y**2
    -0.00004693,             !- Coefficient6 x*y
    15,                      !- Minimum Value of x
    65,                      !- Maximum Value of x
    -30,                     !- Minimum Value of y
    15,                      !- Maximum Value of y
    ,                        !- Minimum Curve Output
    ,                        !- Maximum Curve Output
    Temperature,             !- Input Unit Type for X
    Temperature,             !- Input Unit Type for Y
    Dimensionless;           !- Output Unit Type

  Curve:Biquadratic,
    Spd1Cooling,             !- Name
    0.2186,                  !- Coefficient1 Constant
    -0.001577,               !- Coefficient2 x
    -0.000008294,            !- Coefficient3 x**2
    0.008626,                !- Coefficient4 y
    0.000105,                !- Coefficient5 y**2
    -0.00006976,             !- Coefficient6 x*y
    15,                      !- Minimum Value of x
    65,                      !- Maximum Value of x
    -30,                     !- Minimum Value of y
    15,                      !- Maximum Value of y
    ,                        !- Minimum Curve Output
    ,                        !- Maximum Curve Output
    Temperature,             !- Input Unit Type for X
    Temperature,             !- Input Unit Type for Y
    Dimensionless;           !- Output Unit Type

  Curve:Biquadratic,
    Spd2Cooling,             !- Name
    0.3201,                  !- Coefficient1 Constant
    -0.002263,               !- Coefficient2 x
    -0.00001064,             !- Coefficient3 x**2
    0.0125,                  !- Coefficient4 y
    0.0001496,               !- Coefficient5 y**2
    -0.000103,               !- Coefficient6 x*y
    15,                      !- Minimum Value of x
    65,                      !- Maximum Value of x
    -30,                     !- Minimum Value of y
    15,                      !- Maximum Value of y
    ,                        !- Minimum Curve Output
    ,                        !- Maximum Curve Output
    Temperature,             !- Input Unit Type for X
    Temperature,             !- Input Unit Type for Y
    Dimensionless;           !- Output Unit Type

  Curve:Biquadratic,
    Spd3Cooling,             !- Name
    0.4913,                  !- Coefficient1 Constant
    -0.006415,               !- Coefficient2 x
    0.00003422,              !- Coefficient3 x**2
    0.01676,                 !- Coefficient4 y
    0.0001999,               !- Coefficient5 y**2
    -0.0001361,              !- Coefficient6 x*y
    15,                      !- Minimum Value of x
    65,                      !- Maximum Value of x
    -30,                     !- Minimum Value of y
    15,                      !- Maximum Value of y
    ,                        !- Minimum Curve Output
    ,                        !- Maximum Curve Output
    Temperature,             !- Input Unit Type for X
    Temperature,             !- Input Unit Type for Y
    Dimensionless;           !- Output Unit Type

  Curve:Biquadratic,
    Spd4Cooling,             !- Name
    0.5808,                  !- Coefficient1 Constant
    -0.003717,               !- Coefficient2 x
    -0.00001957,             !- Coefficient3 x**2
    0.02248,                 !- Coefficient4 y
    0.0002053,               !- Coefficient5 y**2
    -0.0001921,              !- Coefficient6 x*y
    15,                      !- Minimum Value of x
    65,                      !- Maximum Value of x
    -30,                     !- Minimum Value of y
    15,                      !- Maximum Value of y
    ,                        !- Minimum Curve Output
    ,                        !- Maximum Curve Output
    Temperature,             !- Input Unit Type for X
    Temperature,             !- Input Unit Type for Y
    Dimensionless;           !- Output Unit Type

  Curve:Biquadratic,
    Spd5Cooling,             !- Name
    0.7591,                  !- Coefficient1 Constant
    -0.005862,               !- Coefficient2 x
    -0.000007698,            !- Coefficient3 x**2
    0.02731,                 !- Coefficient4 y
    0.0003537,               !- Coefficient5 y**2
    -0.0002037,              !- Coefficient6 x*y
    15,                      !- Minimum Value of x
    65,                      !- Maximum Value of x
    -30,                     !- Minimum Value of y
    15,                      !- Maximum Value of y
    ,                        !- Minimum Curve Output
    ,                        !- Maximum Curve Output
    Temperature,             !- Input Unit Type for X
    Temperature,             !- Input Unit Type for Y
    Dimensionless;           !- Output Unit Type

  Curve:Biquadratic,
    Spd6Cooling,             !- Name
    0.8061,                  !- Coefficient1 Constant
    -0.005029,               !- Coefficient2 x
    -0.00002445,             !- Coefficient3 x**2
    0.03092,                 !- Coefficient4 y
    0.0003777,               !- Coefficient5 y**2
    -0.0002377,              !- Coefficient6 x*y
    15,                      !- Minimum Value of x
    65,                      !- Maximum Value of x
    -30,                     !- Minimum Value of y
    15,                      !- Maximum Value of y
    ,                        !- Minimum Curve Output
    ,                        !- Maximum Curve Output
    Temperature,             !- Input Unit Type for X
    Temperature,             !- Input Unit Type for Y
    Dimensionless;           !- Output Unit Type

  Curve:Biquadratic,
    Spd7Cooling,             !- Name
    0.8781,                  !- Coefficient1 Constant
    -0.00156,                !- Coefficient2 x
    -0.00008131,             !- Coefficient3 x**2
    0.04012,                 !- Coefficient4 y
    0.0003905,               !- Coefficient5 y**2
    -0.0003383,              !- Coefficient6 x*y
    15,                      !- Minimum Value of x
    65,                      !- Maximum Value of x
    -30,                     !- Minimum Value of y
    15,                      !- Maximum Value of y
    ,                        !- Minimum Curve Output
    ,                        !- Maximum Curve Output
    Temperature,             !- Input Unit Type for X
    Temperature,             !- Input Unit Type for Y
    Dimensionless;           !- Output Unit Type

  Curve:Biquadratic,
    Spd8Cooling,             !- Name
    0.9687,                  !- Coefficient1 Constant
    0.002803,                !- Coefficient2 x
    -0.0001528,              !- Coefficient3 x**2
    0.0517,                  !- Coefficient4 y
    0.0004067,               !- Coefficient5 y**2
    -0.0004648,              !- Coefficient6 x*y
    15,                      !- Minimum Value of x
    65,                      !- Maximum Value of x
    -30,                     !- Minimum Value of y
    15,                      !- Maximum Value of y
    ,                        !- Minimum Curve Output
    ,                        !- Maximum Curve Output
    Temperature,             !- Input Unit Type for X
    Temperature,             !- Input Unit Type for Y
    Dimensionless;           !- Output Unit Type

  Curve:Biquadratic,
    MinSpdPower,             !- Name
    -0.0004381,              !- Coefficient1 Constant
    0.001459,                !- Coefficient2 x
    -0.000002076,            !- Coefficient3 x**2
    -0.001412,               !- Coefficient4 y
    -0.00002865,             !- Coefficient5 y**2
    0.00003538,              !- Coefficient6 x*y
    15,                      !- Minimum Value of x
    65,                      !- Maximum Value of x
    -30,                     !- Minimum Value of y
    15,                      !- Maximum Value of y
    ,                        !- Minimum Curve Output
    ,                        !- Maximum Curve Output
    Temperature,             !- Input Unit Type for X
    Temperature,             !- Input Unit Type for Y
    Dimensionless;           !- Output Unit Type

  Curve:Biquadratic,
    Spd1Power,               !- Name
    0.003529,                !- Coefficient1 Constant
    0.001969,                !- Coefficient2 x
    -0.000001219,            !- Coefficient3 x**2
    -0.002001,               !- Coefficient4 y
    -0.00003987,             !- Coefficient5 y**2
    0.00005041,              !- Coefficient6 x*y
    15,                      !- Minimum Value of x
    65,                      !- Maximum Value of x
    -30,                     !- Minimum Value of y
    15,                      !- Maximum Value of y
    ,                        !- Minimum Curve Output
    ,                        !- Maximum Curve Output
    Temperature,             !- Input Unit Type for X
    Temperature,             !- Input Unit Type for Y
    Dimensionless;           !- Output Unit Type

  Curve:Biquadratic,
    Spd2Power,               !- Name
    0.007864,                !- Coefficient1 Constant
    0.002813,                !- Coefficient2 x
    -0.000002908,            !- Coefficient3 x**2
    -0.002862,               !- Coefficient4 y
    -0.00005547,             !- Coefficient5 y**2
    0.00007219,              !- Coefficient6 x*y
    15,                      !- Minimum Value of x
    65,                      !- Maximum Value of x
    -30,                     !- Minimum Value of y
    15,                      !- Maximum Value of y
    ,                        !- Minimum Curve Output
    ,                        !- Maximum Curve Output
    Temperature,             !- Input Unit Type for X
    Temperature,             !- Input Unit Type for Y
    Dimensionless;           !- Output Unit Type

  Curve:Biquadratic,
    Spd3Power,               !- Name
    0.05318,                 !- Coefficient1 Constant
    0.004007,                !- Coefficient2 x
    0.00001729,              !- Coefficient3 x**2
    -0.005707,               !- Coefficient4 y
    -0.0001153,              !- Coefficient5 y**2
    0.0001452,               !- Coefficient6 x*y
    15,                      !- Minimum Value of x
    65,                      !- Maximum Value of x
    -30,                     !- Minimum Value of y
    15,                      !- Maximum Value of y
    ,                        !- Minimum Curve Output
    ,                        !- Maximum Curve Output
    Temperature,             !- Input Unit Type for X
    Temperature,             !- Input Unit Type for Y
    Dimensionless;           !- Output Unit Type

  Curve:Biquadratic,
    Spd4Power,               !- Name
    0.01397,                 !- Coefficient1 Constant
    0.009363,                !- Coefficient2 x
    -0.0000341,              !- Coefficient3 x**2
    -0.00757,                !- Coefficient4 y
    -0.0001547,              !- Coefficient5 y**2
    0.0001957,               !- Coefficient6 x*y
    15,                      !- Minimum Value of x
    65,                      !- Maximum Value of x
    -30,                     !- Minimum Value of y
    15,                      !- Maximum Value of y
    ,                        !- Minimum Curve Output
    ,                        !- Maximum Curve Output
    Temperature,             !- Input Unit Type for X
    Temperature,             !- Input Unit Type for Y
    Dimensionless;           !- Output Unit Type

  Curve:Biquadratic,
    Spd5Power,               !- Name
    0.1167,                  !- Coefficient1 Constant
    0.007259,                !- Coefficient2 x
    0.00001968,              !- Coefficient3 x**2
    -0.008029,               !- Coefficient4 y
    -0.0001646,              !- Coefficient5 y**2
    0.0002185,               !- Coefficient6 x*y
    15,                      !- Minimum Value of x
    65,                      !- Maximum Value of x
    -30,                     !- Minimum Value of y
    15,                      !- Maximum Value of y
    ,                        !- Minimum Curve Output
    ,                        !- Maximum Curve Output
    Temperature,             !- Input Unit Type for X
    Temperature,             !- Input Unit Type for Y
    Dimensionless;           !- Output Unit Type

  Curve:Biquadratic,
    Spd6Power,               !- Name
    0.2574,                  !- Coefficient1 Constant
    0.004687,                !- Coefficient2 x
    0.00008909,              !- Coefficient3 x**2
    -0.009131,               !- Coefficient4 y
    -0.0001989,              !- Coefficient5 y**2
    0.000259,                !- Coefficient6 x*y
    15,                      !- Minimum Value of x
    65,                      !- Maximum Value of x
    -30,                     !- Minimum Value of y
    15,                      !- Maximum Value of y
    ,                        !- Minimum Curve Output
    ,                        !- Maximum Curve Output
    Temperature,             !- Input Unit Type for X
    Temperature,             !- Input Unit Type for Y
    Dimensionless;           !- Output Unit Type

  Curve:Biquadratic,
    Spd7Power,               !- Name
    0.5701,                  !- Coefficient1 Constant
    -0.00674,                !- Coefficient2 x
    0.0002654,               !- Coefficient3 x**2
    -0.00734,                !- Coefficient4 y
    -0.000198,               !- Coefficient5 y**2
    0.0002378,               !- Coefficient6 x*y
    15,                      !- Minimum Value of x
    65,                      !- Maximum Value of x
    -30,                     !- Minimum Value of y
    15,                      !- Maximum Value of y
    ,                        !- Minimum Curve Output
    ,                        !- Maximum Curve Output
    Temperature,             !- Input Unit Type for X
    Temperature,             !- Input Unit Type for Y
    Dimensionless;           !- Output Unit Type

  Curve:Biquadratic,
    Spd8Power,               !- Name
    0.9635,                  !- Coefficient1 Constant
    -0.02112,                !- Coefficient2 x
    0.0004872,               !- Coefficient3 x**2
    -0.005087,               !- Coefficient4 y
    -0.0001969,              !- Coefficient5 y**2
    0.0002112,               !- Coefficient6 x*y
    15,                      !- Minimum Value of x
    65,                      !- Maximum Value of x
    -30,                     !- Minimum Value of y
    15,                      !- Maximum Value of y
    ,                        !- Minimum Curve Output
    ,                        !- Maximum Curve Output
    Temperature,             !- Input Unit Type for X
    Temperature,             !- Input Unit Type for Y
    Dimensionless;           !- Output Unit Type

!-   ===========  ALL OBJECTS IN CLASS: ZONETERMINALUNITLIST ===========

  ZoneTerminalUnitList,
    VRF Heat Pump TU List,   !- Zone Terminal Unit List Name
    TU1;                     !- Zone Terminal Unit Name 1

!-   ===========  ALL OBJECTS IN CLASS: ZoneHVAC:TerminalUnit:VariableRefrigerantFlow ===========

  ZoneHVAC:TerminalUnit:VariableRefrigerantFlow,
    TU1,                     !- Zone Terminal Unit Name
    VRFAvailSched,           !- Terminal Unit Availability Schedule
    TU1 Inlet Node,          !- Terminal Unit Air Inlet Node Name
    TU1 Outlet Node,         !- Terminal Unit Air Outlet Node Name
    0.595,                   !- Cooling Supply Air Flow Rate {m3/s}
    0,                       !- No Cooling Supply Air Flow Rate {m3/s}
    0.595,                   !- Heating Supply Air Flow Rate {m3/s}
    0,                       !- No Heating Supply Air Flow Rate {m3/s}
    autosize,                !- Cooling Outdoor Air Flow Rate {m3/s}
    autosize,                !- Heating Outdoor Air Flow Rate {m3/s}
    0,                       !- No Load Outdoor Air Flow Rate {m3/s}
    VRFFanModeSchedule,      !- Supply Air Fan Operating Mode Schedule Name
    drawthrough,             !- Supply Air Fan Placement
    Fan:VariableVolume,      !- Supply Air Fan Object Type
    TU1 VRF Supply Fan,      !- Supply Air Fan Object Name
    OutdoorAir:Mixer,        !- Outside Air Mixer Object Type
    TU1 OA Mixer,            !- Outside Air Mixer Object Name
    Coil:Cooling:DX:VariableRefrigerantFlow:FluidTemperatureControl,  !- Cooling Coil Object Type
    TU1 VRF DX Cooling Coil, !- Cooling Coil Object Name
    COIL:HEATING:DX:VARIABLEREFRIGERANTFLOW:FluidTemperatureControl,  !- Heating Coil Object Type
    TU1 VRF DX Heating Coil, !- Heating Coil Object Name
    30,                      !- Zone Terminal Unit On Parasitic Electric Energy Use {W}
    20,                      !- Zone Terminal Unit Off Parasitic Electric Energy Use {W}
    ,                        !- Rated Heating Capacity Sizing Ratio {W/W}
    ,                        !- Availability Manager List Name
    ,                        !- Design Specification ZoneHVAC Sizing Object Name
    Coil:Heating:Electric,   !- Supplemental Heating Coil Object Type
    TU1 Supp Heating Coil,   !- Supplemental Heating Coil Name
    50;                      !- Maximum Supply Air Temperature from Supplemental Heater {C}

!-   ===========  ALL OBJECTS IN CLASS: COIL:HEATING:ELECTRIC ===========

  Coil:Heating:Electric,
    TU1 Supp Heating Coil,   !- Name
    VRFAvailSched,           !- Availability Schedule Name
    0.99,                    !- Efficiency
    autosize,                !- Nominal Capacity {W}
    TU1 VRF Fan Outlet Node, !- Air Inlet Node Name
    TU1 Outlet Node;         !- Air Outlet Node Name

! 0 means cycling fan/coil operation

  Schedule:Compact,
    VRFFanModeSchedule,      !- Name
    Any Number,              !- Schedule Type Limits Name
    Through: 12/31,          !- Field 1
    For: AllDays,            !- Field 2
    Until: 7:00,0.0,         !- Field 3
    Until: 18:00,0.0,        !- Field 5
    Until: 24:00,0.0;        !- Field 7

  OutdoorAir:Mixer,
    TU1 OA Mixer,            !- Name
    TU1 VRF DX CCoil Inlet Node,  !- Mixed Air Node Name
    Outside Air Inlet Node 1,!- Outdoor Air Stream Node Name
    Relief Air Outlet Node 1,!- Relief Air Stream Node Name
    TU1 Inlet Node;          !- Return Air Stream Node Name

  OutdoorAir:NodeList,
    Outside Air Inlet Node 1;!- Node or NodeList Name 1

  Fan:VariableVolume,
    TU1 VRF Supply Fan,      !- Name
    VRFAvailSched,           !- Availability Schedule Name
    0.5,                     !- Fan Total Efficiency
    400,                     !- Pressure Rise {Pa}
    0.595,                   !- Maximum Flow Rate {m3/s}
    FixedFlowRate,           !- Fan Power Minimum Flow Rate Input Method
    0,                       !- Fan Power Minimum Flow Fraction
    0.415,                   !- Fan Power Minimum Air Flow Rate {m3/s}
    0.9,                     !- Motor Efficiency
    1,                       !- Motor In Airstream Fraction
    0.09,                    !- Fan Power Coefficient 1
    0,                       !- Fan Power Coefficient 2
    0,                       !- Fan Power Coefficient 3
    0.91,                    !- Fan Power Coefficient 4
    0,                       !- Fan Power Coefficient 5
    TU1 VRF DX HCoil Outlet Node,  !- Air Inlet Node Name
    TU1 VRF Fan Outlet Node, !- Air Outlet Node Name
    General;                 !- End-Use Subcategory

!- ===========  ALL OBJECTS IN CLASS: COIL:COOLING:DX:VARIABLEREFRIGERANTFLOW:FLUIDTEMPERATURECONTROL ===========

  Coil:Cooling:DX:VariableRefrigerantFlow:FluidTemperatureControl,
    TU1 VRF DX Cooling Coil, !- Name
    VRFAvailSched,           !- Availability Schedule Name
    TU1 VRF DX CCoil Inlet Node,  !- Coil Air Inlet Node
    TU1 VRF DX CCoil Outlet Node,  !- Coil Air Outlet Node
    10023,                   !- Rated Total Cooling Capacity {W}
    autosize,                !- Rated Sensible Heat Ratio
    8.7,                     !- Indoor Unit Reference Superheating {deltaC}
    IUEvapTempCurve,         !- Indoor Unit Evaporating Temperature Function of Superheating Curve Name
    ;                        !- Name of Water Storage Tank for Condensate Collection

  Curve:Quadratic,
    IUEvapTempCurve,         !- Name
    3.3627,                  !- Coefficient1 Constant
    -0.1535,                 !- Coefficient2 x
    0.0359,                  !- Coefficient3 x**2
    0,                       !- Minimum Value of x
    25,                      !- Maximum Value of x
    ,                        !- Minimum Curve Output
    ,                        !- Maximum Curve Output