!-Generator IDFEditor 1.34
!-Option OriginalOrderTop UseSpecialFormat
!-NOTE: All comments with '!-' are ignored by the IDFEditor and are generated automatically.
!-      Use '!' comments if they need to be retained when using the IDFEditor.
!UserInputViewFactorFile-LshapedZone.idf
!
!
! Basic file description:  Basic test for EnergyPlus.  Two L-shaped zones of spandrel walls
!
! Highlights:        The idf includes a UserViewFactor object and produces view factor information
!                    in the .eio file. Two identical L shaped zones are included.  The first one uses
!                    the input view factors, and the second one calculates approximate view factors.
!                    The purpose of the run is to produce the .eio file.  It does not produce other
!                    usable output.  The viewfactorinfo request is included in the Report Object.
!
!
! Simulation Location/Run: Urbana Illinois. One design day. Purpose is not to obtain load information.
!                          Only purpose is to produce the eio file which has the ViewFactorInfo report
!                          information.
!
!
!
! Building: Two fictional 1 zone buildings with spandrel walls.
!
!
!
!                      ______________
!                      |            |
!                      |            |
!                      |            |
!                      |            |
!                      |            |
!                      |            |
!                      |            |
!        ______________|            |
!        |                          |
!        |                          |
!        |                          |
!        |                          |
!        |                          |
!        |                          |
!        |                          |
!        |__________________________|
!
!

  Version,24.1;

  Building,
    Urbana             Load Calc,  !- Name
    0,                       !- North Axis {deg}
    Suburbs,                 !- Terrain
    0.03,                    !- Loads Convergence Tolerance Value {W}
    0.3,                     !- Temperature Convergence Tolerance Value {deltaC}
    FullExterior,            !- Solar Distribution
    25,                      !- Maximum Number of Warmup Days
    6;                       !- Minimum Number of Warmup Days

  Timestep,2;

  SurfaceConvectionAlgorithm:Inside,Simple;

  SurfaceConvectionAlgorithm:Outside,DOE-2;

  HeatBalanceAlgorithm,ConductionTransferFunction;

  Output:Diagnostics,
    DisplayAdvancedReportVariables;  !- Key 1

  Site:Location,
    Chicago IL,              !- Name
    41.780,                  !- Latitude {deg}
    -87.750,                 !- Longitude {deg}
    -6.0,                    !- Time Zone {hr}
    200.56;                  !- Elevation {m}

  SizingPeriod:DesignDay,
    CHICAGO ILLINOIS SUMMER, !- Name
    7,                       !- Month
    21,                      !- Day of Month
    SummerDesignDay,         !- Day Type
    32.77778,                !- Maximum Dry-Bulb Temperature {C}
    12.77778,                !- Daily Dry-Bulb Temperature Range {deltaC}
    ,                        !- Dry-Bulb Temperature Range Modifier Type
    ,                        !- Dry-Bulb Temperature Range Modifier Day Schedule Name
    Wetbulb,                 !- Humidity Condition Type
    22.77778,                !- Wetbulb or DewPoint at Maximum Dry-Bulb {C}
    ,                        !- Humidity Condition Day Schedule Name
    ,                        !- Humidity Ratio at Maximum Dry-Bulb {kgWater/kgDryAir}
    ,                        !- Enthalpy at Maximum Dry-Bulb {J/kg}
    ,                        !- Daily Wet-Bulb Temperature Range {deltaC}
    99361.81,                !- Barometric Pressure {Pa}
    3.879596,                !- Wind Speed {m/s}
    215.0000,                !- Wind Direction {deg}
    No,                      !- Rain Indicator
    No,                      !- Snow Indicator
    No,                      !- Daylight Saving Time Indicator
    ASHRAEClearSky,          !- Solar Model Indicator
    ,                        !- Beam Solar Day Schedule Name
    ,                        !- Diffuse Solar Day Schedule Name
    ,                        !- ASHRAE Clear Sky Optical Depth for Beam Irradiance (taub) {dimensionless}
    ,                        !- ASHRAE Clear Sky Optical Depth for Diffuse Irradiance (taud) {dimensionless}
    1.000000;                !- Sky Clearness

! CHICAGO_IL_USA Annual Cooling (DB=>MWB) 2%, MaxDB=29.9°C MWB=22.1°C

  SizingPeriod:DesignDay,
    CHICAGO Ann Clg 2% Condns DB=>MWB,  !- Name
    7,                       !- Month
    21,                      !- Day of Month
    SummerDesignDay,         !- Day Type
    29.9,                    !- Maximum Dry-Bulb Temperature {C}
    10.7,                    !- Daily Dry-Bulb Temperature Range {deltaC}
    ,                        !- Dry-Bulb Temperature Range Modifier Type
    ,                        !- Dry-Bulb Temperature Range Modifier Day Schedule Name
    Wetbulb,                 !- Humidity Condition Type
    22.1,                    !- Wetbulb or DewPoint at Maximum Dry-Bulb {C}
    ,                        !- Humidity Condition Day Schedule Name
    ,                        !- Humidity Ratio at Maximum Dry-Bulb {kgWater/kgDryAir}
    ,                        !- Enthalpy at Maximum Dry-Bulb {J/kg}
    ,                        !- Daily Wet-Bulb Temperature Range {deltaC}
    99063.,                  !- Barometric Pressure {Pa}
    5.3,                     !- Wind Speed {m/s}
    230,                     !- Wind Direction {deg}
    No,                      !- Rain Indicator
    No,                      !- Snow Indicator
    No,                      !- Daylight Saving Time Indicator
    ASHRAEClearSky,          !- Solar Model Indicator
    ,                        !- Beam Solar Day Schedule Name
    ,                        !- Diffuse Solar Day Schedule Name
    ,                        !- ASHRAE Clear Sky Optical Depth for Beam Irradiance (taub) {dimensionless}
    ,                        !- ASHRAE Clear Sky Optical Depth for Diffuse Irradiance (taud) {dimensionless}
    1.00;                    !- Sky Clearness

  Site:GroundTemperature:BuildingSurface,20,20,20,20,20,20,20,20,20,20,20,20;

!========================

  Material,
    ASHRAEColumnMat,         !- Name
    smooth,                  !- Roughness
    0.18,                    !- Thickness {m}
    1.33,                    !- Conductivity {W/m-K}
    2002,                    !- Density {kg/m3}
    920,                     !- Specific Heat {J/kg-K}
    0.9,                     !- Thermal Absorptance
    0.6,                     !- Solar Absorptance
    0.6;                     !- Visible Absorptance

  Material,
    Spandrel,                !- Name
    verysmooth,              !- Roughness
    0.009,                   !- Thickness {m}
    0.9,                     !- Conductivity {W/m-K}
    2600,                    !- Density {kg/m3}
    840,                     !- Specific Heat {J/kg-K}
    0.9,                     !- Thermal Absorptance
    0.9,                     !- Solar Absorptance
    0.9;                     !- Visible Absorptance

  Construction,
    SpandrelSheet,           !- Name
    Spandrel;                !- Outside Layer

  Zone,
    Lshaped Zone,            !- Name
    0,                       !- Direction of Relative North {deg}
    0,                       !- X Origin {m}
    0,                       !- Y Origin {m}
    0,                       !- Z Origin {m}
    1,                       !- Type
    1,                       !- Multiplier
    3.048,                   !- Ceiling Height {m}
    autocalculate;           !- Volume {m3}

! =========================

  ZoneProperty:UserViewFactors:BySurfaceName,
    Lshaped Zone,            !- Zone or ZoneList or Space or SpaceList Name
    Lshaped Zone:South Wall, !- From Surface 1
    Lshaped Zone:South Wall, !- To Surface 1
    0.000000,                !- View Factor 1
    Lshaped Zone:South Wall, !- From Surface 2
    Lshaped Zone:East Wall,  !- To Surface 2
    0.101310,                !- View Factor 2
    Lshaped Zone:South Wall, !- From Surface 3
    Lshaped Zone:North Wall-1,  !- To Surface 3
    2.438700E-002,           !- View Factor 3
    Lshaped Zone:South Wall, !- From Surface 4
    Lshaped Zone:West Wall-1,!- To Surface 4
    9.005000E-003,           !- View Factor 4
    Lshaped Zone:South Wall, !- From Surface 5
    Lshaped Zone:Northwall-2,!- To Surface 5
    8.263900E-002,           !- View Factor 5
    Lshaped Zone:South Wall, !- From Surface 6
    Lshaped Zone:Westwall-2, !- To Surface 6
    8.365900E-002,           !- View Factor 6
    Lshaped Zone:South Wall, !- From Surface 7
    Lshaped Zone:Roof-1,     !- To Surface 7
    0.333727,                !- View Factor 7
    Lshaped Zone:South Wall, !- From Surface 8
    Lshaped Zone:Roof-2,     !- To Surface 8
    1.577200E-002,           !- View Factor 8
    Lshaped Zone:South Wall, !- From Surface 9
    Lshaped Zone:Floor-1,    !- To Surface 9
    0.333728,                !- View Factor 9
    Lshaped Zone:South Wall, !- From Surface 10
    Lshaped Zone:Floor-2,    !- To Surface 10
    1.577200E-002,           !- View Factor 10
    Lshaped Zone:East Wall,  !- From Surface 11
    Lshaped Zone:South Wall, !- To Surface 11
    0.101310,                !- View Factor 11
    Lshaped Zone:East Wall,  !- From Surface 12
    Lshaped Zone:East Wall,  !- To Surface 12
    0.000000,                !- View Factor 12
    Lshaped Zone:East Wall,  !- From Surface 13
    Lshaped Zone:North Wall-1,  !- To Surface 13
    8.366000E-002,           !- View Factor 13
    Lshaped Zone:East Wall,  !- From Surface 14
    Lshaped Zone:West Wall-1,!- To Surface 14
    8.263300E-002,           !- View Factor 14
    Lshaped Zone:East Wall,  !- From Surface 15
    Lshaped Zone:Northwall-2,!- To Surface 15
    9.005000E-003,           !- View Factor 15
    Lshaped Zone:East Wall,  !- From Surface 16
    Lshaped Zone:Westwall-2, !- To Surface 16
    2.438300E-002,           !- View Factor 16
    Lshaped Zone:East Wall,  !- From Surface 17
    Lshaped Zone:Roof-1,     !- To Surface 17
    0.182649,                !- View Factor 17
    Lshaped Zone:East Wall,  !- From Surface 18
    Lshaped Zone:Roof-2,     !- To Surface 18
    0.166856,                !- View Factor 18
    Lshaped Zone:East Wall,  !- From Surface 19
    Lshaped Zone:Floor-1,    !- To Surface 19
    0.182648,                !- View Factor 19
    Lshaped Zone:East Wall,  !- From Surface 20
    Lshaped Zone:Floor-2,    !- To Surface 20
    0.166856,                !- View Factor 20
    Lshaped Zone:North Wall-1,  !- <none>
    Lshaped Zone:South Wall, !- <none>
    4.877300E-002,           !- <none>
    Lshaped Zone:North Wall-1,  !- <none>
    Lshaped Zone:East Wall,  !- <none>
    0.167320,                !- <none>
    Lshaped Zone:North Wall-1,  !- <none>
    Lshaped Zone:North Wall-1,  !- <none>
    0.000000,                !- <none>
    Lshaped Zone:North Wall-1,  !- <none>
    Lshaped Zone:West Wall-1,!- <none>
    0.149307,                !- <none>
    Lshaped Zone:North Wall-1,  !- <none>
    Lshaped Zone:Northwall-2,!- <none>
    0.000000,                !- <none>
    Lshaped Zone:North Wall-1,  !- <none>
    Lshaped Zone:Westwall-2, !- <none>
    0.000000,                !- <none>
    Lshaped Zone:North Wall-1,  !- <none>
    Lshaped Zone:Roof-1,     !- <none>
    2.490300E-002,           !- <none>
    Lshaped Zone:North Wall-1,  !- <none>
    Lshaped Zone:Roof-2,     !- <none>
    0.292397,                !- <none>
    Lshaped Zone:North Wall-1,  !- <none>
    Lshaped Zone:Floor-1,    !- <none>
    2.490300E-002,           !- <none>
    Lshaped Zone:North Wall-1,  !- <none>
    Lshaped Zone:Floor-2,    !- <none>
    0.292397,                !- <none>
    Lshaped Zone:West Wall-1,!- <none>
    Lshaped Zone:South Wall, !- <none>
    1.801000E-002,           !- <none>
    Lshaped Zone:West Wall-1,!- <none>
    Lshaped Zone:East Wall,  !- <none>
    0.165266,                !- <none>
    Lshaped Zone:West Wall-1,!- <none>
    Lshaped Zone:North Wall-1,  !- <none>
    0.149307,                !- <none>
    Lshaped Zone:West Wall-1,!- <none>
    Lshaped Zone:West Wall-1,!- <none>
    0.000000,                !- <none>
    Lshaped Zone:West Wall-1,!- <none>
    Lshaped Zone:Northwall-2,!- <none>
    0.000000,                !- <none>
    Lshaped Zone:West Wall-1,!- <none>
    Lshaped Zone:Westwall-2, !- <none>
    0.000000,                !- <none>
    Lshaped Zone:West Wall-1,!- <none>
    Lshaped Zone:Roof-1,     !- <none>
    4.133800E-002,           !- <none>
    Lshaped Zone:West Wall-1,!- <none>
    Lshaped Zone:Roof-2,     !- <none>
    0.292370,                !- <none>
    Lshaped Zone:West Wall-1,!- <none>
    Lshaped Zone:Floor-1,    !- <none>
    4.133800E-002,           !- <none>
    Lshaped Zone:West Wall-1,!- <none>
    Lshaped Zone:Floor-2,    !- <none>
    0.292370,                !- <none>
    Lshaped Zone:Northwall-2,!- <none>
    Lshaped Zone:South Wall, !- <none>
    0.165278,                !- <none>
    Lshaped Zone:Northwall-2,!- <none>
    Lshaped Zone:East Wall,  !- <none>
    1.800900E-002,           !- <none>
    Lshaped Zone:Northwall-2,!- <none>
    Lshaped Zone:North Wall-1,  !- <none>
    0.000000,                !- <none>
    Lshaped Zone:Northwall-2,!- <none>
    Lshaped Zone:West Wall-1,!- <none>
    0.000000,                !- <none>
    Lshaped Zone:Northwall-2,!- <none>
    Lshaped Zone:Northwall-2,!- <none>
    0.000000,                !- <none>
    Lshaped Zone:Northwall-2,!- <none>
    Lshaped Zone:Westwall-2, !- <none>
    0.149298,                !- <none>
    Lshaped Zone:Northwall-2,!- <none>
    Lshaped Zone:Roof-1,     !- <none>
    0.333708,                !- <none>
    Lshaped Zone:Northwall-2,!- <none>
    Lshaped Zone:Roof-2,     !- <none>
    0.000000,                !- <none>
    Lshaped Zone:Northwall-2,!- <none>
    Lshaped Zone:Floor-1,    !- <none>
    0.333707,                !- <none>
    Lshaped Zone:Northwall-2,!- <none>
    Lshaped Zone:Floor-2,    !- <none>
    0.000000,                !- <none>
    Lshaped Zone:Westwall-2, !- <none>
    Lshaped Zone:South Wall, !- <none>
    0.167318,                !- <none>
    Lshaped Zone:Westwall-2, !- <none>
    Lshaped Zone:East Wall,  !- <none>
    4.876700E-002,           !- <none>
    Lshaped Zone:Westwall-2, !- <none>
    Lshaped Zone:North Wall-1,  !- <none>
    0.000000,                !- <none>
    Lshaped Zone:Westwall-2, !- <none>
    Lshaped Zone:West Wall-1,!- <none>
    0.000000,                !- <none>
    Lshaped Zone:Westwall-2, !- <none>
    Lshaped Zone:Northwall-2,!- <none>
    0.149298,                !- <none>
    Lshaped Zone:Westwall-2, !- <none>
    Lshaped Zone:Westwall-2, !- <none>
    0.000000,                !- <none>
    Lshaped Zone:Westwall-2, !- <none>
    Lshaped Zone:Roof-1,     !- <none>
    0.314598,                !- <none>
    Lshaped Zone:Westwall-2, !- <none>
    Lshaped Zone:Roof-2,     !- <none>
    2.711000E-003,           !- <none>
    Lshaped Zone:Westwall-2, !- <none>
    Lshaped Zone:Floor-1,    !- <none>
    0.314598,                !- <none>
    Lshaped Zone:Westwall-2, !- <none>
    Lshaped Zone:Floor-2,    !- <none>
    2.711000E-003,           !- <none>
    Lshaped Zone:Roof-1,     !- <none>
    Lshaped Zone:South Wall, !- <none>
    0.166864,                !- <none>
    Lshaped Zone:Roof-1,     !- <none>
    Lshaped Zone:East Wall,  !- <none>
    9.132500E-002,           !- <none>
    Lshaped Zone:Roof-1,     !- <none>
    Lshaped Zone:North Wall-1,  !- <none>
    6.226000E-003,           !- <none>
    Lshaped Zone:Roof-1,     !- <none>
    Lshaped Zone:West Wall-1,!- <none>
    1.033500E-002,           !- <none>
    Lshaped Zone:Roof-1,     !- <none>
    Lshaped Zone:Northwall-2,!- <none>
    8.342700E-002,           !- <none>
    Lshaped Zone:Roof-1,     !- <none>
    Lshaped Zone:Westwall-2, !- <none>
    7.865000E-002,           !- <none>
    Lshaped Zone:Roof-1,     !- <none>
    Lshaped Zone:Roof-1,     !- <none>
    0.000000,                !- <none>
    Lshaped Zone:Roof-1,     !- <none>
    Lshaped Zone:Roof-2,     !- <none>
    0.000000,                !- <none>
    Lshaped Zone:Roof-1,     !- <none>
    Lshaped Zone:Floor-1,    !- <none>
    0.508989,                !- <none>
    Lshaped Zone:Roof-1,     !- <none>
    Lshaped Zone:Floor-2,    !- <none>
    5.418500E-002,           !- <none>
    Lshaped Zone:Roof-2,     !- <none>
    Lshaped Zone:South Wall, !- <none>
    1.577200E-002,           !- <none>
    Lshaped Zone:Roof-2,     !- <none>
    Lshaped Zone:East Wall,  !- <none>
    0.166856,                !- <none>
    Lshaped Zone:Roof-2,     !- <none>
    Lshaped Zone:North Wall-1,  !- <none>
    0.146198,                !- <none>
    Lshaped Zone:Roof-2,     !- <none>
    Lshaped Zone:West Wall-1,!- <none>
    0.146185,                !- <none>
    Lshaped Zone:Roof-2,     !- <none>
    Lshaped Zone:Northwall-2,!- <none>
    0.000000,                !- <none>
    Lshaped Zone:Roof-2,     !- <none>
    Lshaped Zone:Westwall-2, !- <none>
    1.355000E-003,           !- <none>
    Lshaped Zone:Roof-2,     !- <none>
    Lshaped Zone:Roof-1,     !- <none>
    0.000000,                !- <none>
    Lshaped Zone:Roof-2,     !- <none>
    Lshaped Zone:Roof-2,     !- <none>
    0.000000,                !- <none>
    Lshaped Zone:Roof-2,     !- <none>
    Lshaped Zone:Floor-1,    !- <none>
    0.108370,                !- <none>
    Lshaped Zone:Roof-2,     !- <none>
    Lshaped Zone:Floor-2,    !- <none>
    0.415263,                !- <none>
    Lshaped Zone:Floor-1,    !- <none>
    Lshaped Zone:South Wall, !- <none>
    0.166865,                !- <none>
    Lshaped Zone:Floor-1,    !- <none>
    Lshaped Zone:East Wall,  !- <none>
    9.132400E-002,           !- <none>
    Lshaped Zone:Floor-1,    !- <none>
    Lshaped Zone:North Wall-1,  !- <none>
    6.226000E-003,           !- <none>
    Lshaped Zone:Floor-1,    !- <none>
    Lshaped Zone:West Wall-1,!- <none>
    1.033500E-002,           !- <none>
    Lshaped Zone:Floor-1,    !- <none>
    Lshaped Zone:Northwall-2,!- <none>
    8.342700E-002,           !- <none>
    Lshaped Zone:Floor-1,    !- <none>
    Lshaped Zone:Westwall-2, !- <none>
    7.865000E-002,           !- <none>
    Lshaped Zone:Floor-1,    !- <none>
    Lshaped Zone:Roof-1,     !- <none>
    0.508989,                !- <none>
    Lshaped Zone:Floor-1,    !- <none>
    Lshaped Zone:Roof-2,     !- <none>
    5.418500E-002,           !- <none>
    Lshaped Zone:Floor-1,    !- <none>
    Lshaped Zone:Floor-1,    !- <none>
    0.000000,                !- <none>
    Lshaped Zone:Floor-1,    !- <none>
    Lshaped Zone:Floor-2,    !- <none>
    0.000000,                !- <none>
    Lshaped Zone:Floor-2,    !- <none>
    Lshaped Zone:South Wall, !- <none>
    1.577200E-002,           !- <none>
    Lshaped Zone:Floor-2,    !- <none>
    Lshaped Zone:East Wall,  !- <none>
    0.166856,                !- <none>
    Lshaped Zone:Floor-2,    !- <none>
    Lshaped Zone:North Wall-1,  !- <none>
    0.146198,                !- <none>
    Lshaped Zone:Floor-2,    !- <none>
    Lshaped Zone:West Wall-1,!- <none>
    0.146185,                !- <none>
    Lshaped Zone:Floor-2,    !- <none>
    Lshaped Zone:Northwall-2,!- <none>
    0.000000,                !- <none>
    Lshaped Zone:Floor-2,    !- <none>
    Lshaped Zone:Westwall-2, !- <none>
    1.355000E-003,           !- <none>
    Lshaped Zone:Floor-2,    !- <none>
    Lshaped Zone:Roof-1,     !- <none>
    0.108370,                !- <none>
    Lshaped Zone:Floor-2,    !- <none>
    Lshaped Zone:Roof-2,     !- <none>
    0.415263,                !- <none>
    Lshaped Zone:Floor-2,    !- <none>
    Lshaped Zone:Floor-1,    !- <none>
    0.000000,                !- <none>
    Lshaped Zone:Floor-2,    !- <none>
    Lshaped Zone:Floor-2,    !- <none>
    0.000000;                !- <none>

!  ZoneProperty:UserViewFactors,
!    Lshaped zone,            !- Zone Name
!    1,                       !- i 1
!    1,                       !- j 1
!    0,                       !- Fij 1
!    1,                       !- i 2
!    2,                       !- j 2
!    0.10131,                 !- Fij 2
!    1,                       !- i 3
!    3,                       !- j 3
!    0.024387,                !- Fij 3
!    1,                       !- i 4
!    4,                       !- j 4
!    0.009005,                !- Fij 4
!    1,                       !- i 5
!    5,                       !- j 5
!    0.082639,                !- Fij 5
!    1,                       !- i 6
!    6,                       !- j 6
!    0.083659,                !- Fij 6
!    1,                       !- i 7
!    7,                       !- j 7
!    0.333727,                !- Fij 7
!    1,                       !- i 8
!    8,                       !- j 8
!    0.015772,                !- Fij 8
!    1,                       !- i 9
!    9,                       !- j 9
!    0.333728,                !- Fij 9
!    1,                       !- i 10
!    10,                      !- j 10
!    0.015772,                !- Fij 10
!    2,                       !- i 11
!    1,                       !- j 11
!    0.10131,                 !- Fij 11
!    2,                       !- i 12
!    2,                       !- j 12
!    0,                       !- Fij 12
!    2,                       !- i 13
!    3,                       !- j 13
!    0.08366,                 !- Fij 13
!    2,                       !- i 14
!    4,                       !- j 14
!    0.082633,                !- Fij 14
!    2,                       !- i 15
!    5,                       !- j 15
!    0.009005,                !- Fij 15
!    2,                       !- i 16
!    6,                       !- j 16
!    0.024383,                !- Fij 16
!    2,                       !- i 17
!    7,                       !- j 17
!    0.182649,                !- Fij 17
!    2,                       !- i 18
!    8,                       !- j 18
!    0.166856,                !- Fij 18
!    2,                       !- i 19
!    9,                       !- j 19
!    0.182648,                !- Fij 19
!    2,                       !- i 20
!    10,                      !- j 20
!    0.166856,                !- Fij 20
!    3,                       !- i 21
!    1,                       !- j 21
!    0.048773,                !- Fij 21
!    3,                       !- i 22
!    2,                       !- j 22
!    0.16732,                 !- Fij 22
!    3,                       !- i 23
!    3,                       !- j 23
!    0,                       !- Fij 23
!    3,                       !- i 24
!    4,                       !- j 24
!    0.149307,                !- Fij 24
!    3,                       !- <none>
!    5,                       !- <none>
!    0,                       !- <none>
!    3,                       !- <none>
!    6,                       !- <none>
!    0,                       !- <none>
!    3,                       !- <none>
!    7,                       !- <none>
!    0.024903,                !- <none>
!    3,                       !- <none>
!    8,                       !- <none>
!    0.292397,                !- <none>
!    3,                       !- <none>
!    9,                       !- <none>
!    0.024903,                !- <none>
!    3,                       !- <none>
!    10,                      !- <none>
!    0.292397,                !- <none>
!    4,                       !- <none>
!    1,                       !- <none>
!    0.01801,                 !- <none>
!    4,                       !- <none>
!    2,                       !- <none>
!    0.165266,                !- <none>
!    4,                       !- <none>
!    3,                       !- <none>
!    0.149307,                !- <none>
!    4,                       !- <none>
!    4,                       !- <none>
!    0,                       !- <none>
!    4,                       !- <none>
!    5,                       !- <none>
!    0,                       !- <none>
!    4,                       !- <none>
!    6,                       !- <none>
!    0,                       !- <none>
!    4,                       !- <none>
!    7,                       !- <none>
!    0.041338,                !- <none>
!    4,                       !- <none>
!    8,                       !- <none>
!    0.29237,                 !- <none>
!    4,                       !- <none>
!    9,                       !- <none>
!    0.041338,                !- <none>
!    4,                       !- <none>
!    10,                      !- <none>
!    0.29237,                 !- <none>
!    5,                       !- <none>
!    1,                       !- <none>
!    0.165278,                !- <none>
!    5,                       !- <none>
!    2,                       !- <none>
!    0.018009,                !- <none>
!    5,                       !- <none>
!    3,                       !- <none>
!    0,                       !- <none>
!    5,                       !- <none>
!    4,                       !- <none>
!    0,                       !- <none>
!    5,                       !- <none>
!    5,                       !- <none>
!    0,                       !- <none>
!    5,                       !- <none>
!    6,                       !- <none>
!    0.149298,                !- <none>
!    5,                       !- <none>
!    7,                       !- <none>
!    0.333708,                !- <none>
!    5,                       !- <none>
!    8,                       !- <none>
!    0,                       !- <none>
!    5,                       !- <none>
!    9,                       !- <none>
!    0.333707,                !- <none>
!    5,                       !- <none>
!    10,                      !- <none>
!    0,                       !- <none>
!    6,                       !- <none>
!    1,                       !- <none>
!    0.167318,                !- <none>
!    6,                       !- <none>
!    2,                       !- <none>
!    0.048767,                !- <none>
!    6,                       !- <none>
!    3,                       !- <none>
!    0,                       !- <none>
!    6,                       !- <none>
!    4,                       !- <none>
!    0,                       !- <none>
!    6,                       !- <none>
!    5,                       !- <none>
!    0.149298,                !- <none>
!    6,                       !- <none>
!    6,                       !- <none>
!    0,                       !- <none>
!    6,                       !- <none>
!    7,                       !- <none>
!    0.314598,                !- <none>
!    6,                       !- <none>
!    8,                       !- <none>
!    0.002711,                !- <none>
!    6,                       !- <none>
!    9,                       !- <none>
!    0.314598,                !- <none>
!    6,                       !- <none>
!    10,                      !- <none>
!    0.002711,                !- <none>
!    7,                       !- <none>
!    1,                       !- <none>
!    0.166864,                !- <none>
!    7,                       !- <none>
!    2,                       !- <none>
!    0.091325,                !- <none>
!    7,                       !- <none>
!    3,                       !- <none>
!    0.006226,                !- <none>
!    7,                       !- <none>
!    4,                       !- <none>
!    0.010335,                !- <none>
!    7,                       !- <none>
!    5,                       !- <none>
!    0.083427,                !- <none>
!    7,                       !- <none>
!    6,                       !- <none>
!    0.07865,                 !- <none>
!    7,                       !- <none>
!    7,                       !- <none>
!    0,                       !- <none>
!    7,                       !- <none>
!    8,                       !- <none>
!    0,                       !- <none>
!    7,                       !- <none>
!    9,                       !- <none>
!    0.508989,                !- <none>
!    7,                       !- <none>
!    10,                      !- <none>
!    0.054185,                !- <none>
!    8,                       !- <none>
!    1,                       !- <none>
!    0.015772,                !- <none>
!    8,                       !- <none>
!    2,                       !- <none>
!    0.166856,                !- <none>
!    8,                       !- <none>
!    3,                       !- <none>
!    0.146198,                !- <none>
!    8,                       !- <none>
!    4,                       !- <none>
!    0.146185,                !- <none>
!    8,                       !- <none>
!    5,                       !- <none>
!    0,                       !- <none>
!    8,                       !- <none>
!    6,                       !- <none>
!    0.001355,                !- <none>
!    8,                       !- <none>
!    7,                       !- <none>
!    0,                       !- <none>
!    8,                       !- <none>
!    8,                       !- <none>
!    0,                       !- <none>
!    8,                       !- <none>
!    9,                       !- <none>
!    0.10837,                 !- <none>
!    8,                       !- <none>
!    10,                      !- <none>
!    0.415263,                !- <none>
!    9,                       !- <none>
!    1,                       !- <none>
!    0.166865,                !- <none>
!    9,                       !- <none>
!    2,                       !- <none>
!    0.091324,                !- <none>
!    9,                       !- <none>