!-Generator IDFEditor 1.34
!-Option OriginalOrderTop UseSpecialFormat
!-NOTE: All comments with '!-' are ignored by the IDFEditor and are generated automatically.
!-      Use '!' comments if they need to be retained when using the IDFEditor.
!UserDefinedRoomAirPatterns.idf
! Basic file description: Reasonably complete building model using 9-zone "Rubic's Cube" pattern
! Highlights: Demonstrates and tests user-defined room air temperature patterns (see schematic below)
!               (Room air objects are at end of file)
! Simulation Location/Run: Chicago, 2 design days
! Building: 11 thermal zones, 2,000 m2 floor area. (9 zone floor plate with under floor and suspended ceiling zones)
!                         single story building with relatively tall (4.0 m) occupied zones
!                         There are an excessive number of surfaces in model because
!                         walls are all subdivided in the vertical direction to test
!                         changes in room air temperature
! Internal gains description: lighting level per 90.1, Typical equipment, number of occupants, infiltration etc
! HVAC: Full central VAV system with chiller, boiler, etc.  (orignates from HVAC template)
!
!
!     Schematic for Thermal Zones that Demonstrate Various User-Defined RoomAir Patterns
!
!   ___________________________________________________________________________________
!   |                |                                               |                |
!   |  Zone,ZN7_NW_1 |                  Zone,ZN6_N_1                 |  Zone,ZN5_NE_1 |
!   |  TWO GRADIENT  |                  TWO GRADIENT                 |  TWO GRADIENT  |
!   | INTERPOLATION  |                 INTERPOLATION                 | INTERPOLATION  |
!   | Mixed to one C |                 Mixed to one C                | Mixed to one C |
!   | per meter by   |                 per meter by                  |  per meter by  |
!   | Zone drybulb   |                 Heating Load                  |  Cooling Load  |
!   |                |                                               |                |
!   |                |                                               |                |
!   |________________|_______________________________________________|________________|
!   |                |                                               |                |
!   |  Zone,ZN8_W_1  |               Zone,ZN9_Core_1                 |  Zone,ZN4_E_1  |
!   |                |           NON-DIMENSIONAL HEIGHT              |  TWO GRADIENT  |
!   |   Complex      |        vertical profile approximating         | INTERPOLATION  |
!   |    schedule    |         underfloor air distribution           | Mixed to one C |
!   |  of different  |                                               |  per meter by  |
!   |   patterns     |                                               | difference of  |
!   |                |                                               | zone & outdoor |
!   |                |                                               |                |
!   |                |                                               |                |
!   |                |                returns +1.5C                  |                |
!   |                |                exhausts +1.75C                | Availability   |
!   |                |                                               |  is scheduled  |
!   |________________|_______________________________________________|________________|
!   |                |                                               |                |
!   |  Zone,ZN1_SW_1 |                 Zone,ZN2_S_1                  | Zone,ZN3_SE_1  |
!   |                |                                               |  TWO GRADIENT  |
!   |SURFACE MAPPING |              CONSTANT GRADIENT                | INTERPOLATION  |
!   |  warmer near   |           One Degree C per Meter              | Mixed to one C |
!   | south windows  |                                               | per meter by   |
!   | in the morning |               returns +1.0C                   | outdoor drybulb|
!   |   and west     |                                               |                |
!   | in afternoon;  |                                               |  Availability  |
!   |  returns +0.5C |                                               |  is scheduled  |
!   |________________|_______________________________________________|________________|
!                                (South Side of floor plate)
!
!
!   The model also contains an under floor zone and a suspended ceiling zone

  Version,24.1;

  Timestep,4;

  SimulationControl,
    Yes,                     !- Do Zone Sizing Calculation
    Yes,                     !- Do System Sizing Calculation
    No,                      !- Do Plant Sizing Calculation
    Yes,                     !- Run Simulation for Sizing Periods
    No,                      !- Run Simulation for Weather File Run Periods
    No,                      !- Do HVAC Sizing Simulation for Sizing Periods
    1;                       !- Maximum Number of HVAC Sizing Simulation Passes

  RunPeriod,
    Run Period 1,            !- Name
    1,                       !- Begin Month
    1,                       !- Begin Day of Month
    ,                        !- Begin Year
    12,                      !- End Month
    31,                      !- End Day of Month
    ,                        !- End Year
    Sunday,                  !- Day of Week for Start Day
    No,                      !- Use Weather File Holidays and Special Days
    No,                      !- Use Weather File Daylight Saving Period
    No,                      !- Apply Weekend Holiday Rule
    Yes,                     !- Use Weather File Rain Indicators
    Yes;                     !- Use Weather File Snow Indicators

  SurfaceConvectionAlgorithm:Inside,TARP;

  SurfaceConvectionAlgorithm:Outside,DOE-2;

  HeatBalanceAlgorithm,ConductionTransferFunction;

  Sizing:Parameters,
    1.2,                     !- Heating Sizing Factor
    1.2,                     !- Cooling Sizing Factor
    ;                        !- Timesteps in Averaging Window

  ConvergenceLimits,
    5,                       !- Minimum System Timestep {minutes}
    10;                      !- Maximum HVAC Iterations

  ShadowCalculation,
    PolygonClipping,         !- Shading Calculation Method
    Periodic,                !- Shading Calculation Update Frequency Method
    30;                      !- Shading Calculation Update Frequency

  Site:Location,
    CHICAGO_IL_USA TMY2-94846,  !- Name
    41.78000,                !- Latitude {deg}
    -87.75000,               !- Longitude {deg}
    -6.000000,               !- Time Zone {hr}
    190.0000;                !- Elevation {m}

! CHICAGO_IL_USA Annual Heating Design Conditions Wind Speed=4.9m/s Wind Dir=270
! Coldest Month=January
! CHICAGO_IL_USA Annual Heating 99.6%, MaxDB=-20.6°C

  SizingPeriod:DesignDay,
    CHICAGO Ann Htg 99.6% Condns DB,  !- Name
    1,                       !- Month
    21,                      !- Day of Month
    WinterDesignDay,         !- Day Type
    -20.6,                   !- Maximum Dry-Bulb Temperature {C}
    0.0,                     !- Daily Dry-Bulb Temperature Range {deltaC}
    ,                        !- Dry-Bulb Temperature Range Modifier Type
    ,                        !- Dry-Bulb Temperature Range Modifier Day Schedule Name
    Wetbulb,                 !- Humidity Condition Type
    -20.6,                   !- Wetbulb or DewPoint at Maximum Dry-Bulb {C}
    ,                        !- Humidity Condition Day Schedule Name
    ,                        !- Humidity Ratio at Maximum Dry-Bulb {kgWater/kgDryAir}
    ,                        !- Enthalpy at Maximum Dry-Bulb {J/kg}
    ,                        !- Daily Wet-Bulb Temperature Range {deltaC}
    99063.,                  !- Barometric Pressure {Pa}
    4.9,                     !- Wind Speed {m/s}
    270,                     !- Wind Direction {deg}
    No,                      !- Rain Indicator
    No,                      !- Snow Indicator
    No,                      !- Daylight Saving Time Indicator
    ASHRAEClearSky,          !- Solar Model Indicator
    ,                        !- Beam Solar Day Schedule Name
    ,                        !- Diffuse Solar Day Schedule Name
    ,                        !- ASHRAE Clear Sky Optical Depth for Beam Irradiance (taub) {dimensionless}
    ,                        !- ASHRAE Clear Sky Optical Depth for Diffuse Irradiance (taud) {dimensionless}
    0.00;                    !- Sky Clearness

! CHICAGO Annual Cooling Design Conditions Wind Speed=5.3m/s Wind Dir=230
! Hottest Month=July
! CHICAGO_IL_USA Annual Cooling (DB=>MWB) .4%, MaxDB=33.2°C MWB=23.8°C

  SizingPeriod:DesignDay,
    CHICAGO Ann Clg .4% Condns DB=>MWB,  !- Name
    7,                       !- Month
    21,                      !- Day of Month
    SummerDesignDay,         !- Day Type
    33.2,                    !- Maximum Dry-Bulb Temperature {C}
    10.7,                    !- Daily Dry-Bulb Temperature Range {deltaC}
    ,                        !- Dry-Bulb Temperature Range Modifier Type
    ,                        !- Dry-Bulb Temperature Range Modifier Day Schedule Name
    Wetbulb,                 !- Humidity Condition Type
    23.8,                    !- Wetbulb or DewPoint at Maximum Dry-Bulb {C}
    ,                        !- Humidity Condition Day Schedule Name
    ,                        !- Humidity Ratio at Maximum Dry-Bulb {kgWater/kgDryAir}
    ,                        !- Enthalpy at Maximum Dry-Bulb {J/kg}
    ,                        !- Daily Wet-Bulb Temperature Range {deltaC}
    99063.,                  !- Barometric Pressure {Pa}
    5.3,                     !- Wind Speed {m/s}
    230,                     !- Wind Direction {deg}
    No,                      !- Rain Indicator
    No,                      !- Snow Indicator
    No,                      !- Daylight Saving Time Indicator
    ASHRAEClearSky,          !- Solar Model Indicator
    ,                        !- Beam Solar Day Schedule Name
    ,                        !- Diffuse Solar Day Schedule Name
    ,                        !- ASHRAE Clear Sky Optical Depth for Beam Irradiance (taub) {dimensionless}
    ,                        !- ASHRAE Clear Sky Optical Depth for Diffuse Irradiance (taud) {dimensionless}
    1.00;                    !- Sky Clearness

  Site:GroundTemperature:BuildingSurface,19.96,19.94,19.99,20.04,20.09,20.17,20.21,20.24,20.23,20.20,20.17,20.12;

  ScheduleTypeLimits,
    Any Number;              !- Name

  ScheduleTypeLimits,
    Fraction,                !- Name
    0.0,                     !- Lower Limit Value
    1.0,                     !- Upper Limit Value
    CONTINUOUS;              !- Numeric Type

  ScheduleTypeLimits,
    Temperature,             !- Name
    -60,                     !- Lower Limit Value
    200,                     !- Upper Limit Value
    CONTINUOUS,              !- Numeric Type
    Temperature;             !- Unit Type

  ScheduleTypeLimits,
    On/Off,                  !- Name
    0,                       !- Lower Limit Value
    1,                       !- Upper Limit Value
    DISCRETE;                !- Numeric Type

  ScheduleTypeLimits,
    Control Type,            !- Name
    0,                       !- Lower Limit Value
    4,                       !- Upper Limit Value
    DISCRETE;                !- Numeric Type

  ScheduleTypeLimits,
    Integer ID Six Digits,   !- Name
    -999999,                 !- Lower Limit Value
    999999,                  !- Upper Limit Value
    DISCRETE;                !- Numeric Type

  ScheduleTypeLimits,
    Humidity,                !- Name
    10,                      !- Lower Limit Value
    90,                      !- Upper Limit Value
    CONTINUOUS;              !- Numeric Type

  ScheduleTypeLimits,
    Number;                  !- Name

! Schedule set    Schedule_Office_ASHRAE_90.1-1989_TypTstatSetback[]

  Schedule:Compact,
    ALWAYS_ON,               !- Name
    Fraction,                !- Schedule Type Limits Name
    Through: 12/31,          !- Field 1
    For: AllDays,            !- Field 2
    Until: 24:00,1.0;        !- Field 3

! Schedule Office HVAC Systems, ASHRAE 90.1-1989, Section 13
!  Equivalent Full-Load Hours: Weekdays 16, Saturday 12, Sunday/Holidays 0

  Schedule:Compact,
    HVACOperationSchd,       !- Name
    on/off,                  !- Schedule Type Limits Name
    Through: 12/31,          !- Field 1
    For: Weekdays SummerDesignDay, !- Field 2
    Until: 06:00,0.0,        !- Field 3
    Until: 22:00,1.0,        !- Field 5
    Until: 24:00,0.0,        !- Field 7
    For: Saturday WinterDesignDay, !- Field 9
    Until: 06:00,0.0,        !- Field 10
    Until: 18:00,1.0,        !- Field 12
    Until: 24:00,0.0,        !- Field 14
    For: Sunday Holidays AllOtherDays, !- Field 16
    Until: 24:00,0.0;        !- Field 17

! Schedule Office Lighting,  ASHRAE 90.1-1989, Section 13 w/addenda

  Schedule:Compact,
    BLDG_LIGHT_SCH,          !- Name
    Fraction,                !- Schedule Type Limits Name
    Through: 12/31,          !- Field 1
    For: Weekdays SummerDesignDay, !- Field 2
    Until: 05:00,0.05,       !- Field 3
    Until: 07:00,0.1,        !- Field 5
    Until: 08:00,0.3,        !- Field 7
    Until: 17:00,0.9,        !- Field 9
    Until: 18:00,0.5,        !- Field 11
    Until: 20:00,0.3,        !- Field 13
    Until: 22:00,0.2,        !- Field 15
    Until: 23:00,0.1,        !- Field 17
    Until: 24:00,0.05,       !- Field 19
    For: Saturday WinterDesignDay, !- Field 21
    Until: 06:00,0.05,       !- Field 22
    Until: 08:00,0.1,        !- Field 24
    Until: 12:00,0.3,        !- Field 26
    Until: 17:00,0.15,       !- Field 28
    Until: 24:00,0.05,       !- Field 30
    For: Sunday Holidays AllOtherDays, !- Field 32
    Until: 24:00,0.05;       !- Field 33

! Schedule Office Receptacle,  ASHRAE 90.1-1989, Section 13
! MODIFIED for increased off-hours plug loads (to account for more IT equipment)

  Schedule:Compact,
    BLDG_EQUIP_SCH,          !- Name
    Fraction,                !- Schedule Type Limits Name
    Through: 12/31,          !- Field 1
    For: Weekdays SummerDesignDay, !- Field 2
    Until: 08:00,0.40,       !- Field 3
    Until: 12:00,0.90,       !- Field 5
    Until: 13:00,0.80,       !- Field 7
    Until: 17:00,0.90,       !- Field 9
    Until: 18:00,0.50,       !- Field 11
    Until: 24:00,0.40,       !- Field 13
    For: Saturday WinterDesignDay, !- Field 15
    Until: 06:00,0.30,       !- Field 16
    Until: 08:00,0.4,        !- Field 18
    Until: 12:00,0.5,        !- Field 20
    Until: 17:00,0.35,       !- Field 22
    Until: 24:00,0.30,       !- Field 24
    For: Sunday Holidays AllOtherDays, !- Field 26
    Until: 24:00,0.30;       !- Field 27

! Schedule Office Occupancy,

  Schedule:Compact,
    BLDG_OCC_SCH,            !- Name
    Fraction,                !- Schedule Type Limits Name
    Through: 12/31,          !- Field 1
    For: Weekdays SummerDesignDay, !- Field 2
    Until: 06:00,0.0,        !- Field 3
    Until: 07:00,0.1,        !- Field 5
    Until: 08:00,0.2,        !- Field 7
    Until: 12:00,0.95,       !- Field 9
    Until: 13:00,0.5,        !- Field 11
    Until: 17:00,0.95,       !- Field 13
    Until: 18:00,0.3,        !- Field 15
    Until: 22:00,0.1,        !- Field 17
    Until: 24:00,0.05,       !- Field 19
    For: Saturday WinterDesignDay, !- Field 21
    Until: 06:00,0.0,        !- Field 22
    Until: 08:00,0.1,        !- Field 24
    Until: 12:00,0.3,        !- Field 26
    Until: 17:00,0.1,        !- Field 28
    Until: 19:00,0.05,       !- Field 30
    Until: 24:00,0.0,        !- Field 32
    For: Sunday Holidays AllOtherDays, !- Field 34
    Until: 06:00,0.0,        !- Field 35
    Until: 18:00,0.05,       !- Field 37
    Until: 24:00,0.0;        !- Field 39

! Schedule Office Service Water Heating, ASHRAE 90.1-1989, Section 13

  Schedule:Compact,
    ACTIVITY_SCH,            !- Name
    Any Number,              !- Schedule Type Limits Name
    Through: 12/31,          !- Field 1
    For: AllDays,            !- Field 2
    Until: 24:00,120.;       !- Field 3

  Schedule:Compact,
    WORK_EFF_SCH,            !- Name
    Fraction,                !- Schedule Type Limits Name
    Through: 12/31,          !- Field 1
    For: AllDays,            !- Field 2
    Until: 24:00,0.0;        !- Field 3

  Schedule:Compact,
    AIR_VELO_SCH,            !- Name
    Any Number,              !- Schedule Type Limits Name
    Through: 12/31,          !- Field 1
    For: AllDays,            !- Field 2
    Until: 24:00,0.2;        !- Field 3

  Schedule:Compact,
    CLOTHING_SCH,            !- Name
    Any Number,              !- Schedule Type Limits Name
    Through: 04/30,          !- Field 1
    For: AllDays,            !- Field 2
    Until: 24:00,1.0,        !- Field 3
    Through: 09/30,          !- Field 5
    For: AllDays,            !- Field 6
    Until: 24:00,0.5,        !- Field 7
    Through: 12/31,          !- Field 9
    For: AllDays,            !- Field 10
    Until: 24:00,1.0;        !- Field 11

  Schedule:Compact,
    INFIL_SCH,               !- Name
    on/off,                  !- Schedule Type Limits Name
    Through: 12/31,          !- Field 1
    For: Weekdays SummerDesignDay, !- Field 2
    Until: 06:00,1.0,        !- Field 3
    Until: 22:00,0.0,        !- Field 5
    Until: 24:00,1.0,        !- Field 7
    For: Saturday WinterDesignDay, !- Field 9
    Until: 06:00,1.0,        !- Field 10
    Until: 18:00,0.0,        !- Field 12
    Until: 24:00,1.0,        !- Field 14
    For: Sunday Holidays AllOtherDays, !- Field 16
    Until: 24:00,1.0;        !- Field 17

  Schedule:Compact,
    PlantOnSched,            !- Name
    Any Number,              !- Schedule Type Limits Name
    Through: 12/31,          !- Field 1
    For: AllDays,            !- Field 2
    Until: 24:00,1.0;        !- Field 3

  Schedule:Compact,
    FAN_SCH,                 !- Name
    Fraction,                !- Schedule Type Limits Name
    Through: 12/31,          !- Field 1
    For: AllDays,            !- Field 2
    Until: 24:00,1.0;        !- Field 3

  Schedule:Compact,
    ReheatCoilAvailSched,    !- Name
    Fraction,                !- Schedule Type Limits Name
    Through: 12/31,          !- Field 1
    For: AllDays,            !- Field 2
    Until: 24:00,1.0;        !- Field 3

  Schedule:Compact,
    CoolingCoilAvailSched,   !- Name
    Fraction,                !- Schedule Type Limits Name
    Through: 12/31,          !- Field 1
    For: AllDays,            !- Field 2
    Until: 24:00,1.0;        !- Field 3

  Schedule:Compact,
    HTGSETP_SCH,             !- Name
    Temperature,             !- Schedule Type Limits Name
    Through: 12/31,          !- Field 1
    For: Weekdays,           !- Field 2
    Until: 06:00,13.,        !- Field 3
    Until: 19:00,21.0,       !- Field 5
    Until: 24:00,13.,        !- Field 7
    For SummerDesignDay,     !- Field 9
    Until: 24:00,13.,        !- Field 10
    For: Saturday,           !- Field 12
    Until: 06:00,13.,        !- Field 13
    Until: 13:00,21.0,       !- Field 15
    Until: 24:00,13.,        !- Field 17
    For WinterDesignDay,     !- Field 19
    Until: 24:00,21.0,       !- Field 20
    For: Sunday Holidays AllOtherDays, !- Field 22
    Until: 24:00,13.;        !- Field 23

  Schedule:Compact,
    CLGSETP_SCH,             !- Name
    Temperature,             !- Schedule Type Limits Name
    Through: 12/31,          !- Field 1
    For: Weekdays,           !- Field 2
    Until: 06:00,33.0,       !- Field 3
    Until: 22:00,24.0,       !- Field 5
    Until: 24:00,33.0,       !- Field 7
    For SummerDesignDay,     !- Field 9
    Until: 24:00,24.0,       !- Field 10
    For: Saturday,           !- Field 12
    Until: 06:00,33.0,       !- Field 13
    Until: 18:00,24.0,       !- Field 15
    Until: 24:00,33.0,       !- Field 17
    For WinterDesignDay,     !- Field 19
    Until: 24:00,33.0,       !- Field 20
    For: Sunday Holidays AllOtherDays, !- Field 22
    Until: 24:00,33.0;       !- Field 23

  Schedule:Compact,
    MinOA_Sched,             !- Name
    on/off,                  !- Schedule Type Limits Name
    Through: 12/31,          !- Field 1
    For: Weekdays SummerDesignDay, !- Field 2
    Until: 05:00,0.0,        !- Field 3
    Until: 22:00,1.0,        !- Field 5
    Until: 24:00,0.0,        !- Field 7
    For: Saturday WinterDesignDay, !- Field 9
    Until: 07:00,0.0,        !- Field 10
    Until: 18:00,1.0,        !- Field 12
    Until: 24:00,0.0,        !- Field 14
    For: Sunday Holidays AllOtherDays, !- Field 16
    Until: 24:00,0.0;        !- Field 17

  Schedule:Compact,
    Dual Zone Control Type Sched,  !- Name
    Temperature,             !- Schedule Type Limits Name
    Through: 12/31,          !- Field 1
    For: AllDays,            !- Field 2
    Until: 24:00,4;          !- Field 3

  Schedule:Compact,
    Seasonal-Reset-Supply-Air-Temp-Sch,  !- Name
    Temperature,             !- Schedule Type Limits Name
    Through: 3/31,           !- Field 1
    For: AllDays,            !- Field 2
    Until: 24:00,13.0,       !- Field 3
    Through: 9/30,           !- Field 5
    For: AllDays,            !- Field 6
    Until: 24:00,16.0,       !- Field 7
    Through: 12/31,          !- Field 9
    For: AllDays,            !- Field 10
    Until: 24:00,13.0;       !- Field 11

  Schedule:Compact,
    CW-Loop-Temp-Schedule,   !- Name
    Temperature,             !- Schedule Type Limits Name
    Through: 12/31,          !- Field 1
    For: AllDays,            !- Field 2
    Until: 24:00,6.7;        !- Field 3

  Schedule:Compact,
    HW-Loop-Temp-Schedule,   !- Name
    Temperature,             !- Schedule Type Limits Name
    Through: 12/31,          !- Field 1
    For: AllDays,            !- Field 2
    Until: 24:00,60.;        !- Field 3

!  IA_EIAMonthlyRateGas,  Source EIA historical Nov2003 thru Oct2004
!  Iowa 1999 state average electricity emissions factors based on eGRID, 1065, AirData
!  MidAmericEnerg_GeneralService, Source TAP, Effective 2003-01-01
!  MidAmericEnerg_GeneralServiceDemand, Source TAP, Effective
!

  Schedule:Compact,
    MidAmerEnerSeasonSchedule,  !- Name
    number,                  !- Schedule Type Limits Name
    Through: 5/31,           !- Field 1
    For: AllDays,            !- Field 2
    Until: 24:00,1,          !- Field 3
    Through: 9/30,           !- Field 5
    For: AllDays,            !- Field 6
    Until: 24:00,3,          !- Field 7
    Through: 12/31,          !- Field 9
    For: AllDays,            !- Field 10
    Until: 24:00,1;          !- Field 11

  UtilityCost:Tariff,
    MidAmericEnerg_GeneralServiceDemand,  !- Name
    Electricity:Facility,    !- Output Meter Name
    kWh,                     !- Conversion Factor Choice
    ,                        !- Energy Conversion Factor
    ,                        !- Demand Conversion Factor
    ,                        !- Time of Use Period Schedule Name
    MidAmerEnerSeasonSchedule,  !- Season Schedule Name
    ,                        !- Month Schedule Name
    QuarterHour,             !- Demand Window Length
    80.00,                   !- Monthly Charge or Variable Name
    ,                        !- Minimum Monthly Charge or Variable Name
    ,                        !- Real Time Pricing Charge Schedule Name
    ,                        !- Customer Baseline Load Schedule Name
    Comm Elect;              !- Group Name

  UtilityCost:Charge:Block,
    SummerEnergyCharge,      !- Utility Cost Charge Block Name
    MidAmericEnerg_GeneralServiceDemand,  !- Tariff Name
    totalEnergy,             !- Source Variable
    Summer,                  !- Season
    EnergyCharges,           !- Category Variable Name
    ,                        !- Remaining Into Variable
    TotalDemand,             !- Block Size Multiplier Value or Variable Name
    250,                     !- Block Size 1 Value or Variable Name
    0.0561,                  !- Block 1 Cost per Unit Value or Variable Name
    150,                     !- Block Size 2 Value or Variable Name
    0.0291,                  !- Block 2 Cost per Unit Value or Variable Name
    remaining,               !- Block Size 3 Value or Variable Name
    0.0196;                  !- Block 3 Cost per Unit Value or Variable Name

  UtilityCost:Charge:Simple,
    SummerBasicEnergyCharge, !- Utility Cost Charge Simple Name
    MidAmericEnerg_GeneralServiceDemand,  !- Tariff Name
    TotalEnergy,             !- Source Variable
    Summer,                  !- Season
    EnergyCharges,           !- Category Variable Name
    0.0110;                  !- Cost per Unit Value or Variable Name

  UtilityCost:Charge:Block,
    WinterEnergyCharge,      !- Utility Cost Charge Block Name
    MidAmericEnerg_GeneralServiceDemand,  !- Tariff Name
    totalEnergy,             !- Source Variable
    Winter,                  !- Season
    EnergyCharges,           !- Category Variable Name
    ,                        !- Remaining Into Variable
    TotalDemand,             !- Block Size Multiplier Value or Variable Name
    250,                     !- Block Size 1 Value or Variable Name
    0.0481,                  !- Block 1 Cost per Unit Value or Variable Name
    150,                     !- Block Size 2 Value or Variable Name
    0.0291,                  !- Block 2 Cost per Unit Value or Variable Name
    remaining,               !- Block Size 3 Value or Variable Name
    0.0196;                  !- Block 3 Cost per Unit Value or Variable Name

  UtilityCost:Charge:Simple,
    WinterBasicEnergyCharge, !- Utility Cost Charge Simple Name
    MidAmericEnerg_GeneralServiceDemand,  !- Tariff Name
    TotalEnergy,             !- Source Variable
    Winter,                  !- Season
    EnergyCharges,           !- Category Variable Name
    0.0060;                  !- Cost per Unit Value or Variable Name

  UtilityCost:Charge:Block,
    WinterDemandCharge,      !- Utility Cost Charge Block Name
    MidAmericEnerg_GeneralServiceDemand,  !- Tariff Name
    totalDemand,             !- Source Variable
    Winter,                  !- Season
    DemandCharges,           !- Category Variable Name
    ,                        !- Remaining Into Variable
    ,                        !- Block Size Multiplier Value or Variable Name
    200,                     !- Block Size 1 Value or Variable Name
    0.0,                     !- Block 1 Cost per Unit Value or Variable Name
    remaining,               !- Block Size 2 Value or Variable Name
    4.75;                    !- Block 2 Cost per Unit Value or Variable Name

  UtilityCost:Charge:Block,
    SummerDemandCharge,      !- Utility Cost Charge Block Name
    MidAmericEnerg_GeneralServiceDemand,  !- Tariff Name
    totalDemand,             !- Source Variable
    Summer,                  !- Season
    DemandCharges,           !- Category Variable Name
    ,                        !- Remaining Into Variable
    ,                        !- Block Size Multiplier Value or Variable Name
    200,                     !- Block Size 1 Value or Variable Name
    0.0,                     !- Block 1 Cost per Unit Value or Variable Name
    remaining,               !- Block Size 2 Value or Variable Name
    6.51;                    !- Block 2 Cost per Unit Value or Variable Name

  UtilityCost:Qualify,
    MinDemand200kw,          !- Utility Cost Qualify Name
    MidAmericEnerg_GeneralServiceDemand,  !- Tariff Name
    TotalDemand,             !- Variable Name
    Minimum,                 !- Qualify Type
    200,                     !- Threshold Value or Variable Name
    Annual,                  !- Season
    Count,                   !- Threshold Test
    12;                      !- Number of Months

  UtilityCost:Charge:Simple,
    TaxofSevenPercent,       !- Utility Cost Charge Simple Name
    MidAmericEnerg_GeneralServiceDemand,  !- Tariff Name
    SubTotal,                !- Source Variable
    Annual,                  !- Season
    Taxes,                   !- Category Variable Name
    0.07;                    !- Cost per Unit Value or Variable Name

!end  MidAmericEnerg_GeneralServiceDemand

  UtilityCost:Tariff,
    MidAmericEnerg_GeneralService,  !- Name
    Electricity:Facility,    !- Output Meter Name
    kWh,                     !- Conversion Factor Choice
    ,                        !- Energy Conversion Factor
    ,                        !- Demand Conversion Factor
    ,                        !- Time of Use Period Schedule Name
    MidAmerEnerSeasonSchedule,  !- Season Schedule Name
    ,                        !- Month Schedule Name
    ,                        !- Demand Window Length
    10.00,                   !- Monthly Charge or Variable Name
    ,                        !- Minimum Monthly Charge or Variable Name
    ,                        !- Real Time Pricing Charge Schedule Name
    ,                        !- Customer Baseline Load Schedule Name
    Comm Elect;              !- Group Name

  UtilityCost:Charge:Block,
    SummerEnergyCharge,      !- Utility Cost Charge Block Name
    MidAmericEnerg_GeneralService,  !- Tariff Name
    totalEnergy,             !- Source Variable
    Summer,                  !- Season
    EnergyCharges,           !- Category Variable Name
    ,                        !- Remaining Into Variable
    ,                        !- Block Size Multiplier Value or Variable Name
    4000,                    !- Block Size 1 Value or Variable Name
    0.0711,                  !- Block 1 Cost per Unit Value or Variable Name
    remaining,               !- Block Size 2 Value or Variable Name
    0.0561;                  !- Block 2 Cost per Unit Value or Variable Name

  UtilityCost:Charge:Block,