! ShipShoebox.idf
!***********************************************************
!****** SIMULATION CONTROLS ********************************
!***********************************************************

  Version,24.1;

  Building,
    Shoebox,                 !- Name
    0.0,                     !- North Axis {deg}
    Suburbs,                 !- Terrain
    0.05,                    !- Loads Convergence Tolerance Value {W}
    0.05,                    !- Temperature Convergence Tolerance Value {deltaC}
    FullInteriorAndExterior, !- Solar Distribution
    35,                      !- Maximum Number of Warmup Days
    6;                       !- Minimum Number of Warmup Days

  Timestep,4;

  GlobalGeometryRules,
    UpperLeftCorner,         !- Starting Vertex Position
    CounterClockWise,        !- Vertex Entry Direction
    Relative;                !- Coordinate System

  RunPeriod,
    Annual Run,              !- Name
    1,                       !- Begin Month
    1,                       !- Begin Day of Month
    ,                        !- Begin Year
    2,                       !- End Month
    28,                      !- End Day of Month
    ,                        !- End Year
    Tuesday,                 !- Day of Week for Start Day
    Yes,                     !- Use Weather File Holidays and Special Days
    Yes,                     !- Use Weather File Daylight Saving Period
    No,                      !- Apply Weekend Holiday Rule
    Yes,                     !- Use Weather File Rain Indicators
    Yes;                     !- Use Weather File Snow Indicators

  SimulationControl,
    No,                      !- Do Zone Sizing Calculation
    No,                      !- Do System Sizing Calculation
    No,                      !- Do Plant Sizing Calculation
    Yes,                     !- Run Simulation for Sizing Periods
    No,                      !- Run Simulation for Weather File Run Periods
    No,                      !- Do HVAC Sizing Simulation for Sizing Periods
    1;                       !- Maximum Number of HVAC Sizing Simulation Passes

  ShadowCalculation,
    PolygonClipping,         !- Shading Calculation Method
    Periodic,                !- Shading Calculation Update Frequency Method
    1;                       !- Shading Calculation Update Frequency

!***********************************************************
!****** LOCATION SPECIFIC OBJECTS **************************
!***********************************************************

  Site:Location,
    Denver Centennial CO USA WMO=724666,  !- Name
    39.57,                   !- Latitude {deg}
    -104.85,                 !- Longitude {deg}
    -7.00,                   !- Time Zone {hr}
    1793.00;                 !- Elevation {m}

  SizingPeriod:DesignDay,
    Denver Centennial Ann Htg 99.6% Condns DB,  !- Name
    12,                      !- Month
    21,                      !- Day of Month
    WinterDesignDay,         !- Day Type
    -18.8,                   !- Maximum Dry-Bulb Temperature {C}
    0.0,                     !- Daily Dry-Bulb Temperature Range {deltaC}
    ,                        !- Dry-Bulb Temperature Range Modifier Type
    ,                        !- Dry-Bulb Temperature Range Modifier Day Schedule Name
    Wetbulb,                 !- Humidity Condition Type
    -18.8,                   !- Wetbulb or DewPoint at Maximum Dry-Bulb {C}
    ,                        !- Humidity Condition Day Schedule Name
    ,                        !- Humidity Ratio at Maximum Dry-Bulb {kgWater/kgDryAir}
    ,                        !- Enthalpy at Maximum Dry-Bulb {J/kg}
    ,                        !- Daily Wet-Bulb Temperature Range {deltaC}
    81560.,                  !- Barometric Pressure {Pa}
    3,                       !- Wind Speed {m/s}
    340,                     !- Wind Direction {deg}
    No,                      !- Rain Indicator
    No,                      !- Snow Indicator
    No,                      !- Daylight Saving Time Indicator
    ASHRAEClearSky,          !- Solar Model Indicator
    ,                        !- Beam Solar Day Schedule Name
    ,                        !- Diffuse Solar Day Schedule Name
    ,                        !- ASHRAE Clear Sky Optical Depth for Beam Irradiance (taub) {dimensionless}
    ,                        !- ASHRAE Clear Sky Optical Depth for Diffuse Irradiance (taud) {dimensionless}
    0.00;                    !- Sky Clearness

  SizingPeriod:DesignDay,
    Denver Centennial Ann Clg 1% Condns DB=>MWB,  !- Name
    7,                       !- Month
    21,                      !- Day of Month
    SummerDesignDay,         !- Day Type
    32,                      !- Maximum Dry-Bulb Temperature {C}
    15.2,                    !- Daily Dry-Bulb Temperature Range {deltaC}
    ,                        !- Dry-Bulb Temperature Range Modifier Type
    ,                        !- Dry-Bulb Temperature Range Modifier Day Schedule Name
    Wetbulb,                 !- Humidity Condition Type
    15.5,                    !- Wetbulb or DewPoint at Maximum Dry-Bulb {C}
    ,                        !- Humidity Condition Day Schedule Name
    ,                        !- Humidity Ratio at Maximum Dry-Bulb {kgWater/kgDryAir}
    ,                        !- Enthalpy at Maximum Dry-Bulb {J/kg}
    ,                        !- Daily Wet-Bulb Temperature Range {deltaC}
    81560.,                  !- Barometric Pressure {Pa}
    4.9,                     !- Wind Speed {m/s}
    0,                       !- Wind Direction {deg}
    No,                      !- Rain Indicator
    No,                      !- Snow Indicator
    No,                      !- Daylight Saving Time Indicator
    ASHRAEClearSky,          !- Solar Model Indicator
    ,                        !- Beam Solar Day Schedule Name
    ,                        !- Diffuse Solar Day Schedule Name
    ,                        !- ASHRAE Clear Sky Optical Depth for Beam Irradiance (taub) {dimensionless}
    ,                        !- ASHRAE Clear Sky Optical Depth for Diffuse Irradiance (taud) {dimensionless}
    1.00;                    !- Sky Clearness

  Site:VariableLocation,
    VaryingLatitude,         !- Name
    VaryingLongitude,        !- Building Location Latitude Schedule
    VaryingOrientation;      !- Building Location Longitude Schedule

  Schedule:Compact,
    VaryingLatitude,         !- Name
    Any Number,              !- Schedule Type Limits Name
    Through: 01/31,          !- Field 1
    For: AllDays,            !- Field 2
    Until: 24:00,25,         !- Field 3
    Through: 12/31,          !- Field 5
    For: AllDays,            !- Field 6
    Until: 24:00,45;         !- Field 7

  Schedule:Compact,
    VaryingLongitude,        !- Name
    Any Number,              !- Schedule Type Limits Name
    Through: 01/31,          !- Field 1
    For: AllDays,            !- Field 2
    Until: 24:00,-95,        !- Field 3
    Through: 12/31,          !- Field 5
    For: AllDays,            !- Field 6
    Until: 24:00,-102;       !- Field 7

  Schedule:Compact,
    VaryingOrientation,      !- Name
    Any Number,              !- Schedule Type Limits Name
    Through: 01/31,          !- Field 1
    For: AllDays,            !- Field 2
    Until: 24:00,0,          !- Field 3
    Through: 02/28,          !- Field 5
    For: AllDays,            !- Field 6
    Until: 24:00,90,         !- Field 7
    Through: 03/31,          !- Field 9
    For: AllDays,            !- Field 10
    Until: 24:00,180,        !- Field 11
    Through: 04/30,          !- Field 13
    For: AllDays,            !- Field 14
    Until: 24:00,270,        !- Field 15
    Through: 05/31,          !- Field 17
    For: AllDays,            !- Field 18
    Until: 24:00,360,        !- Field 19
    Through: 12/31,          !- Field 21
    For: AllDays,            !- Field 22
    Until: 24:00,0;          !- Field 23

  Zone,
    Main Floor,              !- Name
    0,                       !- Direction of Relative North {deg}
    0,                       !- X Origin {m}
    0,                       !- Y Origin {m}
    0,                       !- Z Origin {m}
    ,                        !- Type
    ,                        !- Multiplier
    autocalculate,           !- Ceiling Height {m}
    autocalculate,           !- Volume {m3}
    autocalculate,           !- Floor Area {m2}
    Simple,                  !- Zone Inside Convection Algorithm
    SimpleCombined,          !- Zone Outside Convection Algorithm
    Yes;                     !- Part of Total Floor Area

  BuildingSurface:Detailed,
    Main Floor Wall 1,       !- Name
    Wall,                    !- Surface Type
    Main Construction,       !- Construction Name
    Main Floor,              !- Zone Name
    ,                        !- Space Name
    OtherSideConditionsModel,!- Outside Boundary Condition
    Underwater,              !- Outside Boundary Condition Object
    SunExposed,              !- Sun Exposure
    WindExposed,             !- Wind Exposure
    autocalculate,           !- View Factor to Ground
    4,                       !- Number of Vertices
    0,0,0,  !- X,Y,Z ==> Vertex 1 {m}
    15,0,0,  !- X,Y,Z ==> Vertex 2 {m}
    15,0,3.1,  !- X,Y,Z ==> Vertex 3 {m}
    0,0,3.1;  !- X,Y,Z ==> Vertex 4 {m}

  BuildingSurface:Detailed,
    Main Floor Wall 2,       !- Name
    Wall,                    !- Surface Type
    Main Construction,       !- Construction Name
    Main Floor,              !- Zone Name
    ,                        !- Space Name
    OtherSideConditionsModel,!- Outside Boundary Condition
    Underwater,              !- Outside Boundary Condition Object
    SunExposed,              !- Sun Exposure
    WindExposed,             !- Wind Exposure
    autocalculate,           !- View Factor to Ground
    4,                       !- Number of Vertices
    0,10,0,  !- X,Y,Z ==> Vertex 1 {m}
    15,10,0,  !- X,Y,Z ==> Vertex 2 {m}
    15,10,3.1,  !- X,Y,Z ==> Vertex 3 {m}
    0,10,3.1;  !- X,Y,Z ==> Vertex 4 {m}

  BuildingSurface:Detailed,
    Main Floor Wall 3,       !- Name
    Wall,                    !- Surface Type
    Main Construction,       !- Construction Name
    Main Floor,              !- Zone Name
    ,                        !- Space Name
    OtherSideConditionsModel,!- Outside Boundary Condition
    Underwater,              !- Outside Boundary Condition Object
    SunExposed,              !- Sun Exposure
    WindExposed,             !- Wind Exposure
    autocalculate,           !- View Factor to Ground
    4,                       !- Number of Vertices
    15,0,0,  !- X,Y,Z ==> Vertex 1 {m}
    15,10,0,  !- X,Y,Z ==> Vertex 2 {m}
    15,10,3.1,  !- X,Y,Z ==> Vertex 3 {m}
    15,0,3.1;  !- X,Y,Z ==> Vertex 4 {m}

  BuildingSurface:Detailed,
    Main Floor Wall 4,       !- Name
    Wall,                    !- Surface Type
    Main Construction,       !- Construction Name
    Main Floor,              !- Zone Name
    ,                        !- Space Name
    OtherSideConditionsModel,!- Outside Boundary Condition
    Underwater,              !- Outside Boundary Condition Object
    SunExposed,              !- Sun Exposure
    WindExposed,             !- Wind Exposure
    autocalculate,           !- View Factor to Ground
    4,                       !- Number of Vertices
    0,0,0,  !- X,Y,Z ==> Vertex 1 {m}
    0,0,3.1,  !- X,Y,Z ==> Vertex 2 {m}
    0,10,3.1,  !- X,Y,Z ==> Vertex 3 {m}
    0,10,0;  !- X,Y,Z ==> Vertex 4 {m}

  BuildingSurface:Detailed,
    Main Floor Roof,         !- Name
    Roof,                    !- Surface Type
    Main Construction,       !- Construction Name
    Main Floor,              !- Zone Name
    ,                        !- Space Name
    OtherSideConditionsModel,!- Outside Boundary Condition
    Underwater,              !- Outside Boundary Condition Object
    SunExposed,              !- Sun Exposure
    WindExposed,             !- Wind Exposure
    autocalculate,           !- View Factor to Ground
    4,                       !- Number of Vertices
    0,10,3.1,  !- X,Y,Z ==> Vertex 1 {m}
    0,0,3.1,  !- X,Y,Z ==> Vertex 2 {m}
    10,0,3.1,  !- X,Y,Z ==> Vertex 3 {m}
    10,10,3.1;  !- X,Y,Z ==> Vertex 4 {m}

  BuildingSurface:Detailed,
    Main Floor Floor,        !- Name
    Floor,                   !- Surface Type
    Main Construction,       !- Construction Name
    Main Floor,              !- Zone Name
    ,                        !- Space Name
    OtherSideConditionsModel,!- Outside Boundary Condition
    Underwater,              !- Outside Boundary Condition Object
    NoSun,                   !- Sun Exposure
    NoWind,                  !- Wind Exposure
    autocalculate,           !- View Factor to Ground
    4,                       !- Number of Vertices
    0,10,0,  !- X,Y,Z ==> Vertex 1 {m}
    10,10,0,  !- X,Y,Z ==> Vertex 2 {m}
    10,0,0,  !- X,Y,Z ==> Vertex 3 {m}
    0,0,0;  !- X,Y,Z ==> Vertex 4 {m}

  SurfaceProperty:OtherSideConditionsModel,
    Underwater,              !- Name
    ConvectiveUnderwater;    !- Type of Modeling

  SurfaceProperty:Underwater,
    Underwater,              !- Name
    140,                     !- Distance from Surface Centroid to Leading Edge of Boundary Layer {m}
    WaterTempSchedule,       !- Free Stream Water Temperature Schedule
    VelocitySchedule;        !- Free Stream Water Velocity Schedule

  Schedule:Constant,WaterTempSchedule,Any Number,23;

  Schedule:Constant,VelocitySchedule,Any Number,10.2;

!***********************************************************
!****** ABOVE-GROUND MATERIALS/CONSTRUCTIONS ***************
!***********************************************************
! ASHRAE 1145-RP Wall Assembly 2
! 2"x6" wood studs at 24" on center with between-stud R19 fibreglass insulation.
! Layers are 1/2" wood siding, 1/2" plywood, 2x6 wood studs and R19 insulation, 1/2" gypsum board.
! Area-average R-Value = 17.487 ft2-F-h/Btu (3.078 m2-K/W).
! Total wall thickness = 7.00in (0.178m)
! Material layer names follow:

  Construction,
    Main Construction,       !- Name
    Composite 2x6 Wood Stud R19 #3,  !- Outside Layer
    Composite 2x6 Wood Stud R19 #2,  !- Layer 2
    Composite 2x6 Wood Stud R19 #1;  !- Layer 3

  Material,
    Composite 2x6 Wood Stud R19 #1,  !- Name
    Smooth,                  !- Roughness
    0.019,                   !- Thickness {m}
    0.137,                   !- Conductivity {W/m-K}
    640.0,                   !- Density {kg/m3}
    1006,                    !- Specific Heat {J/kg-K}
    0.9,                     !- Thermal Absorptance
    0.7,                     !- Solar Absorptance
    0.7;                     !- Visible Absorptance

  Material,
    Composite 2x6 Wood Stud R19 #2,  !- Name
    Smooth,                  !- Roughness
    0.133,                   !- Thickness {m}
    0.047,                   !- Conductivity {W/m-K}
    93.84,                   !- Density {kg/m3}
    1006,                    !- Specific Heat {J/kg-K}
    0.9,                     !- Thermal Absorptance
    0.7,                     !- Solar Absorptance
    0.7;                     !- Visible Absorptance

  Material,
    Composite 2x6 Wood Stud R19 #3,  !- Name
    Smooth,                  !- Roughness
    0.025,                   !- Thickness {m}
    0.246,                   !- Conductivity {W/m-K}
    492.67,                  !- Density {kg/m3}
    1006,                    !- Specific Heat {J/kg-K}
    0.9,                     !- Thermal Absorptance
    0.7,                     !- Solar Absorptance
    0.7;                     !- Visible Absorptance

!***********************************************************
!****** OUTPUT CONTROLS ************************************
!***********************************************************

  Output:VariableDictionary,IDF;

!  Output:Variable,*,Surface Other Side Conditions Modeled Convection Air Temperature,hourly,ReportingSchedule;
!  Output:Variable,*,Surface Other Side Conditions Modeled Convection Heat Transfer Coefficient,hourly,ReportingSchedule;
!  Output:Variable,*,Zone Air Temperature,hourly,ReportingSchedule;

  OutputControl:Table:Style,
    HTML;                    !- Column Separator

  Output:Table:SummaryReports,
    AllSummary;              !- Report 1 Name

  Output:Diagnostics,
    DisplayUnusedSchedules;  !- Key 1

  Output:Variable,*,Site Solar Azimuth Angle,hourly,ReportingSchedule;

  Output:Variable,*,Site Solar Altitude Angle,hourly,ReportingSchedule;

  Output:Variable,*,Site Solar Hour Angle,hourly,ReportingSchedule;

  Output:Variable,*,Surface Outside Face Beam Solar Incident Angle Cosine Value,hourly,ReportingSchedule;

! Reporting schedule, since our CMake forces a full annual

  Schedule:Compact,
    ReportingSchedule,       !- Name
    Any Number,              !- Schedule Type Limits Name
    Through: 02/28,          !- Field 1
    For: AllDays,            !- Field 2
    Until: 24:00,1,          !- Field 3
    Through: 12/31,          !- Field 5
    For: AllDays,            !- Field 6
    Until: 24:00,0;          !- Field 7

