!-Generator IDFEditor 1.44
!-Option SortedOrder
!
!-NOTE: All comments with '!-' are ignored by the IDFEditor and are generated automatically.
!-      Use '!' comments if they need to be retained when using the IDFEditor.
!
!-   ===========  ALL OBJECTS IN CLASS: VERSION ===========
! VRF_ConnectedToDOAS.idf
!
! Basic file description:  1 story building divided into 4 exterior and one interior conditioned zones and return plenum.
!
!                          Illustrates the use of a dedicated outdoor air system (DOAS) with Variable Refrigerant flow (VRF)
!                          The DOAS air is ducted to the inlet side of the VRF terminal unit and mixed with zone recirculating
!                          air through the use of inlet side mixer terminal units for zones: SPACE1-1, SPACE2-1 and SPACE3-1.
!                          The DOAS air is ducted to the outlet side of the VRF terminal unit and mixed with the VRF outlet air
!                          through the use of supply side mixer terminal units for zones: SPACE4-1 and SPACE5-1.
!
! Highlights:              Multispeed fan with UnitarySystemPerformance:Multispeed for TU1
!                          Multispeed fan with Discrete Fan:SystemModel for TU2
!
! Simulation Location/Run: Miami Intl Ap FL USA TMY3 722020, 2 design days, 2 run periods,
!
! Location:                Miami, FL
!
! Design Days:             Miami Intl Ap FL USA Annual Heating 99.6%, MaxDB=8.7°C
!                          Miami Intl Ap FL USA Annual Cooling (DB=>MWB) .4%, MaxDB=33.2°C MWB=25.3°C
!
! Run Period (Weather File): Winter 2/1, Summer 7/1, Miami Intl Ap FL USA 722020
!
! Run Control:             Zone and System sizing with weather file run control
!
! Building: Single floor rectangular building 100 ft x 50 ft. 5 zones - 4 exterior, 1 interior, zone height 8 feet.
!           Exterior zone depth is 12 feet. There is a 2 foot high return plenum: the overall building height is
!           10 feet. There are windows on all 4 facades; the south and north facades have glass doors.
!           The south facing glass is shaded by overhangs. The walls are woodshingle over plywood, R11 insulation,
!           and gypboard. The roof is a gravel built up roof with R-3 mineral board insulation and plywood sheathing.
!           The windows are of various single and double pane construction with 3mm and 6mm glass and either 6mm or
!           13mm argon or air gap.  The window to wall ratio is approximately 0.29.
!           The south wall and door have overhangs.
!
!           The building is oriented 30 degrees east of north.
!
! Floor Area:        463.6 m2 (5000 ft2)
! Number of Stories: 1
!
! Zone Description Details:
!
!      (0,15.2,0)                      (30.5,15.2,0)
!           _____   ________                ____
!         |\     ***        ****************   /|
!         | \                                 / |
!         |  \                 (26.8,11.6,0) /  |
!         *   \_____________________________/   *
!         *    |(3.7,11.6,0)               |    *
!         *    |                           |    *
!         *    |                           |    *
!         *    |               (26.8,3.7,0)|    *
!         *    |___________________________|    *
!         *   / (3.7,3.7,0)                 \   *
!         |  /                               \  |
!         | /                                 \ |
!         |/___******************___***________\|
!          |       Overhang        |   |
!          |_______________________|   |   window/door = *
!                                  |___|
!
!      (0,0,0)                            (30.5,0,0)
!
! Internal gains description:     lighting is 1.5 watts/ft2, office equip is 1.0 watts/ft2. There is 1 occupant
!                                 per 100 ft2 of floor area. The infiltration is 0.25 air changes per hour.
!
! Interzone Surfaces:             6 interzone surfaces (see diagram)
! Internal Mass:                  None
! People:                         50
! Lights:                         7500 W
! Windows:                        4 ea.: 1) Double pane clear, 3mm glass, 13mm air gap
!                                        2) Double pane clear, 3mm glass, 13mm argon gap
!                                        3) Double pane clear, 6mm glass, 6mm air gap
!                                        4) Double pane lowE,  6mm lowE glass outside, 6mm air gap, 6mm clear glass
!
! Doors:                          2 ea.:    Single pane grey,  3mm glass
!
! Detached Shading:               None
! Daylight:                       None
! Natural Ventilation:            None
! Compact Schedules:              Yes
!
! HVAC:                           The VRF system uses DX cooling and DX heating coils in each of 5 terminal units.
!                                 Once all terminal units are simulated, the condenser attached to those terminal
!                                 units is then simulated. Terminal unit in each zone is connected a dedicated outdoor
!                                 air system with heat recovery. The DOAS provides a fixed amount of outdoor air.
!
! Zone Equipment:                 ZoneHVAC:TerminalUnit:VariableRefrigerantFlow
! Central Air Handling Equipment: No (uses AirConditioner:VariableRefrigerantFlow condenser object)
! Central DOAS:                   Yes (Provides dedicated OA to each terminal unit mixer AirTerminal:SingleDuct:Mixer)
! System Equipment Autosize:      Yes
! Purchased Cooling:              None
! Purchased Heating:              None
! Coils:                          Coil:Cooling:DX:VariableRefrigerantFlow, Coil:Heating:DX:VariableRefrigerantFlow
! Pumps:                          None
! Boilers:                        None
! Chillers:                       None
!
! Results:
! Standard Reports:               None
! Timestep or Hourly Variables:   Hourly
! Time bins Report:               None
! HTML Report:                    None
! Environmental Emissions:        None
! Utility Tariffs:                None

  Version,24.1;

  Output:Diagnostics,
    DisplayAllWarnings;      !- Key 1

  Schedule:Compact,
    VRFCondAvailSched,       !- Name
    Fraction,                !- Schedule Type Limits Name
    Through: 12/31,          !- Field 1
    For: AllDays,            !- Field 2
    Until: 12:00,1.0,        !- Field 3
    Until: 13:00,1.0,        !- Field 5
    Until: 24:00,1.0;        !- Field 7

! Variable Refrigerant Flow (VRF) Heat Pump
! Mitsubishi PURY-P108TGMU
! Nominal Cooling Capacity = 31.7 kW
! Nominal Cooling Power Input = 9.63 (Cooling COP = 3.2917)
! Nominal Heating Capacity = 35.2 kW
! Nominal Power Input = 9.92 kW (Heating COP = 3.5484)
! Note: Capacity performance curves are normalized to capacity at 16C indoor wet-bulb temperature
!       For this reason, the similation will report that capacity as a function of temperature curves are not 1 at the rating point

  AirConditioner:VariableRefrigerantFlow,
    VRF Heat Pump,           !- Heat Pump Name
    VRFCondAvailSched,       !- Availability Schedule Name
    autosize,                !- Gross Rated Total Cooling Capacity {W}
    3.2917,                  !- Gross Rated Cooling COP {W/W}
    -5,                      !- Minimum Condenser Inlet Node Temperature in Cooling Mode {C}
    43,                      !- Maximum Condenser Inlet Node Temperature in Cooling Mode {C}
    VRFCoolCapFT,            !- Cooling Capacity Ratio Modifier Function of Low Temperature Curve Name
    VRFCoolCapFTBoundary,    !- Cooling Capacity Ratio Boundary Curve Name
    VRFCoolCapFTHi,          !- Cooling Capacity Ratio Modifier Function of High Temperature Curve Name
    VRFCoolEIRFT,            !- Cooling Energy Input Ratio Modifier Function of Low Temperature Curve Name
    VRFCoolEIRFTBoundary,    !- Cooling Energy Input Ratio Boundary Curve Name
    VRFCoolEIRFTHi,          !- Cooling Energy Input Ratio Modifier Function of High Temperature Curve Name
    CoolingEIRLowPLR,        !- Cooling Energy Input Ratio Modifier Function of Low Part-Load Ratio Curve Name
    CoolingEIRHiPLR,         !- Cooling Energy Input Ratio Modifier Function of High Part-Load Ratio Curve Name
    CoolingCombRatio,        !- Cooling Combination Ratio Correction Factor Curve Name
    VRFCPLFFPLR,             !- Cooling Part-Load Fraction Correlation Curve Name
    autosize,                !- Gross Rated Heating Capacity {W}
    ,                        !- Rated Heating Capacity Sizing Ratio {W/W}
    3.5484,                  !- Gross Rated Heating COP {W/W}
    -20,                     !- Minimum Condenser Inlet Node Temperature in Heating Mode {C}
    20,                      !- Maximum Condenser Inlet Node Temperature in Heating Mode {C}
    VRFHeatCapFT,            !- Heating Capacity Ratio Modifier Function of Low Temperature Curve Name
    VRFHeatCapFTBoundary,    !- Heating Capacity Ratio Boundary Curve Name
    VRFHeatCapFTHi,          !- Heating Capacity Ratio Modifier Function of High Temperature Curve Name
    VRFHeatEIRFT,            !- Heating Energy Input Ratio Modifier Function of Low Temperature Curve Name
    VRFHeatEIRFTBoundary,    !- Heating Energy Input Ratio Boundary Curve Name
    VRFHeatEIRFTHi,          !- Heating Energy Input Ratio Modifier Function of High Temperature Curve Name
    WetBulbTemperature,      !- Heating Performance Curve Outdoor Temperature Type
    HeatingEIRLowPLR,        !- Heating Energy Input Ratio Modifier Function of Low Part-Load Ratio Curve Name
    HeatingEIRHiPLR,         !- Heating Energy Input Ratio Modifier Function of High Part-Load Ratio Curve Name
    HeatingCombRatio,        !- Heating Combination Ratio Correction Factor Curve Name
    VRFCPLFFPLR,             !- Heating Part-Load Fraction Correlation Curve Name
    0.25,                    !- Minimum Heat Pump Part-Load Ratio {dimensionless}
    SPACE1-1,                !- Zone Name for Master Thermostat Location
    LoadPriority,            !- Master Thermostat Priority Control Type
    ,                        !- Thermostat Priority Schedule Name
    VRF Heat Pump TU List,   !- Zone Terminal Unit List Name
    No,                      !- Heat Pump Waste Heat Recovery
    30,                      !- Equivalent Piping Length used for Piping Correction Factor in Cooling Mode {m}
    10,                      !- Vertical Height used for Piping Correction Factor {m}
    CoolingLengthCorrectionFactor,  !- Piping Correction Factor for Length in Cooling Mode Curve Name
    -0.000386,               !- Piping Correction Factor for Height in Cooling Mode Coefficient {1/m}
    30,                      !- Equivalent Piping Length used for Piping Correction Factor in Heating Mode {m}
    ,                        !- Piping Correction Factor for Length in Heating Mode Curve Name
    ,                        !- Piping Correction Factor for Height in Heating Mode Coefficient {1/m}
    15,                      !- Crankcase Heater Power per Compressor {W}
    3,                       !- Number of Compressors {dimensionless}
    0.33,                    !- Ratio of Compressor Size to Total Compressor Capacity {W/W}
    7,                       !- Maximum Outdoor Dry-Bulb Temperature for Crankcase Heater {C}
    Resistive,               !- Defrost Strategy
    Timed,                   !- Defrost Control
    ,                        !- Defrost Energy Input Ratio Modifier Function of Temperature Curve Name
    ,                        !- Defrost Time Period Fraction {dimensionless}
    autosize,                !- Resistive Defrost Heater Capacity {W}
    7,                       !- Maximum Outdoor Dry-bulb Temperature for Defrost Operation {C}
    AirCooled,               !- Condenser Type
    MyVRFOANode,             !- Condenser Inlet Node Name
    ,                        !- Condenser Outlet Node Name
    ,                        !- Water Condenser Volume Flow Rate {m3/s}
    ,                        !- Evaporative Condenser Effectiveness {dimensionless}
    ,                        !- Evaporative Condenser Air Flow Rate {m3/s}
    0,                       !- Evaporative Condenser Pump Rated Power Consumption {W}
    ,                        !- Supply Water Storage Tank Name
    0,                       !- Basin Heater Capacity {W/K}
    ,                        !- Basin Heater Setpoint Temperature {C}
    ,                        !- Basin Heater Operating Schedule Name
    Electricity;             !- Fuel Type

  Curve:Biquadratic,
    VRFCoolCapFT,            !- Name
    0.576882692,             !- Coefficient1 Constant
    0.017447952,             !- Coefficient2 x
    0.000583269,             !- Coefficient3 x**2
    -1.76324E-06,            !- Coefficient4 y
    -7.474E-09,              !- Coefficient5 y**2
    -1.30413E-07,            !- Coefficient6 x*y
    15,                      !- Minimum Value of x
    24,                      !- Maximum Value of x
    -5,                      !- Minimum Value of y
    23,                      !- Maximum Value of y
    ,                        !- Minimum Curve Output
    ,                        !- Maximum Curve Output
    Temperature,             !- Input Unit Type for X
    Temperature,             !- Input Unit Type for Y
    Dimensionless;           !- Output Unit Type

  Curve:Cubic,
    VRFCoolCapFTBoundary,    !- Name
    25.73473775,             !- Coefficient1 Constant
    -0.03150043,             !- Coefficient2 x
    -0.01416595,             !- Coefficient3 x**2
    0,                       !- Coefficient4 x**3
    11,                      !- Minimum Value of x
    30,                      !- Maximum Value of x
    ,                        !- Minimum Curve Output
    ,                        !- Maximum Curve Output
    Temperature,             !- Input Unit Type for X
    Temperature;             !- Output Unit Type

  Curve:Biquadratic,
    VRFCoolCapFTHi,          !- Name
    0.6867358,               !- Coefficient1 Constant
    0.0207631,               !- Coefficient2 x
    0.0005447,               !- Coefficient3 x**2
    -0.0016218,              !- Coefficient4 y
    -4.259E-07,              !- Coefficient5 y**2
    -0.0003392,              !- Coefficient6 x*y
    15,                      !- Minimum Value of x
    24,                      !- Maximum Value of x
    16,                      !- Minimum Value of y
    43,                      !- Maximum Value of y
    ,                        !- Minimum Curve Output
    ,                        !- Maximum Curve Output
    Temperature,             !- Input Unit Type for X
    Temperature,             !- Input Unit Type for Y
    Dimensionless;           !- Output Unit Type

  Curve:Biquadratic,
    VRFCoolEIRFT,            !- Name
    0.989010541,             !- Coefficient1 Constant
    -0.02347967,             !- Coefficient2 x
    0.000199711,             !- Coefficient3 x**2
    0.005968336,             !- Coefficient4 y
    -1.0289E-07,             !- Coefficient5 y**2
    -0.00015686,             !- Coefficient6 x*y
    15,                      !- Minimum Value of x
    24,                      !- Maximum Value of x
    -5,                      !- Minimum Value of y
    23,                      !- Maximum Value of y
    ,                        !- Minimum Curve Output
    ,                        !- Maximum Curve Output
    Temperature,             !- Input Unit Type for X
    Temperature,             !- Input Unit Type for Y
    Dimensionless;           !- Output Unit Type

  Curve:Cubic,
    VRFCoolEIRFTBoundary,    !- Name
    25.73473775,             !- Coefficient1 Constant
    -0.03150043,             !- Coefficient2 x
    -0.01416595,             !- Coefficient3 x**2
    0,                       !- Coefficient4 x**3
    15,                      !- Minimum Value of x
    24,                      !- Maximum Value of x
    ,                        !- Minimum Curve Output
    ,                        !- Maximum Curve Output
    Temperature,             !- Input Unit Type for X
    Temperature;             !- Output Unit Type

  Curve:Biquadratic,
    VRFCoolEIRFTHi,          !- Name
    0.14351470,              !- Coefficient1 Constant
    0.01860035,              !- Coefficient2 x
    -0.0003954,              !- Coefficient3 x**2
    0.02485219,              !- Coefficient4 y
    0.00016329,              !- Coefficient5 y**2
    -0.0006244,              !- Coefficient6 x*y
    15,                      !- Minimum Value of x
    24,                      !- Maximum Value of x
    16,                      !- Minimum Value of y
    43,                      !- Maximum Value of y
    ,                        !- Minimum Curve Output
    ,                        !- Maximum Curve Output
    Temperature,             !- Input Unit Type for X
    Temperature,             !- Input Unit Type for Y
    Dimensionless;           !- Output Unit Type

  Curve:Cubic,
    CoolingEIRLowPLR,        !- Name
    0.4628123,               !- Coefficient1 Constant
    -1.0402406,              !- Coefficient2 x
    2.17490997,              !- Coefficient3 x**2
    -0.5974817,              !- Coefficient4 x**3
    0,                       !- Minimum Value of x
    1,                       !- Maximum Value of x
    ,                        !- Minimum Curve Output
    ,                        !- Maximum Curve Output
    Temperature,             !- Input Unit Type for X
    Temperature;             !- Output Unit Type

  Curve:Quadratic,
    CoolingEIRHiPLR,         !- Name
    1.0,                     !- Coefficient1 Constant
    0.0,                     !- Coefficient2 x
    0.0,                     !- Coefficient3 x**2
    1.0,                     !- Minimum Value of x
    1.5,                     !- Maximum Value of x
    ,                        !- Minimum Curve Output
    ,                        !- Maximum Curve Output
    Dimensionless,           !- Input Unit Type for X
    Dimensionless;           !- Output Unit Type

  Curve:Linear,
    CoolingCombRatio,        !- Name
    0.618055,                !- Coefficient1 Constant
    0.381945,                !- Coefficient2 x
    1.0,                     !- Minimum Value of x
    1.5,                     !- Maximum Value of x
    1.0,                     !- Minimum Curve Output
    1.2,                     !- Maximum Curve Output
    Dimensionless,           !- Input Unit Type for X
    Dimensionless;           !- Output Unit Type

  CURVE:QUADRATIC,
    VRFCPLFFPLR,             !- Name
    0.85,                    !- Coefficient1 Constant
    0.15,                    !- Coefficient2 x
    0.0,                     !- Coefficient3 x**2
    0.0,                     !- Minimum Value of x
    1.0,                     !- Maximum Value of x
    0.85,                    !- Minimum Curve Output
    1.0,                     !- Maximum Curve Output
    Dimensionless,           !- Input Unit Type for X
    Dimensionless;           !- Output Unit Type

  Curve:Biquadratic,
    VRFHeatCapFT,            !- Name
    1.014599599,             !- Coefficient1 Constant
    -0.002506703,            !- Coefficient2 x
    -0.000141599,            !- Coefficient3 x**2
    0.026931595,             !- Coefficient4 y
    1.83538E-06,             !- Coefficient5 y**2
    -0.000358147,            !- Coefficient6 x*y
    15,                      !- Minimum Value of x
    27,                      !- Maximum Value of x
    -20,                     !- Minimum Value of y
    15,                      !- Maximum Value of y
    ,                        !- Minimum Curve Output
    ,                        !- Maximum Curve Output
    Temperature,             !- Input Unit Type for X
    Temperature,             !- Input Unit Type for Y
    Dimensionless;           !- Output Unit Type

  Curve:Cubic,
    VRFHeatCapFTBoundary,    !- Name
    -7.6000882,              !- Coefficient1 Constant
    3.05090016,              !- Coefficient2 x
    -0.1162844,              !- Coefficient3 x**2
    0.0,                     !- Coefficient4 x**3
    15,                      !- Minimum Value of x
    27,                      !- Maximum Value of x
    ,                        !- Minimum Curve Output
    ,                        !- Maximum Curve Output
    Temperature,             !- Input Unit Type for X
    Temperature;             !- Output Unit Type

  Curve:Biquadratic,
    VRFHeatCapFTHi,          !- Name
    1.161134821,             !- Coefficient1 Constant
    0.027478868,             !- Coefficient2 x
    -0.00168795,             !- Coefficient3 x**2
    0.001783378,             !- Coefficient4 y
    2.03208E-06,             !- Coefficient5 y**2
    -6.8969E-05,             !- Coefficient6 x*y
    15,                      !- Minimum Value of x
    27,                      !- Maximum Value of x
    -10,                     !- Minimum Value of y
    15,                      !- Maximum Value of y
    ,                        !- Minimum Curve Output
    ,                        !- Maximum Curve Output
    Temperature,             !- Input Unit Type for X
    Temperature,             !- Input Unit Type for Y
    Dimensionless;           !- Output Unit Type

  Curve:Biquadratic,
    VRFHeatEIRFT,            !- Name
    0.87465501,              !- Coefficient1 Constant
    -0.01319754,             !- Coefficient2 x
    0.00110307,              !- Coefficient3 x**2
    -0.0133118,              !- Coefficient4 y
    0.00089017,              !- Coefficient5 y**2
    -0.00012766,             !- Coefficient6 x*y
    15,                      !- Minimum Value of x
    27,                      !- Maximum Value of x
    -20,                     !- Minimum Value of y
    12,                      !- Maximum Value of y
    ,                        !- Minimum Curve Output
    ,                        !- Maximum Curve Output
    Temperature,             !- Input Unit Type for X
    Temperature,             !- Input Unit Type for Y
    Dimensionless;           !- Output Unit Type

  Curve:Cubic,
    VRFHeatEIRFTBoundary,    !- Name
    -7.6000882,              !- Coefficient1 Constant
    3.05090016,              !- Coefficient2 x
    -0.1162844,              !- Coefficient3 x**2
    0.0,                     !- Coefficient4 x**3
    15,                      !- Minimum Value of x
    27,                      !- Maximum Value of x
    -20,                     !- Minimum Curve Output
    15,                      !- Maximum Curve Output
    Temperature,             !- Input Unit Type for X
    Temperature;             !- Output Unit Type

  Curve:Biquadratic,
    VRFHeatEIRFTHi,          !- Name
    2.504005146,             !- Coefficient1 Constant
    -0.05736767,             !- Coefficient2 x
    4.07336E-05,             !- Coefficient3 x**2
    -0.12959669,             !- Coefficient4 y
    0.00135839,              !- Coefficient5 y**2
    0.00317047,              !- Coefficient6 x*y
    15,                      !- Minimum Value of x
    27,                      !- Maximum Value of x
    -10,                     !- Minimum Value of y
    15,                      !- Maximum Value of y
    ,                        !- Minimum Curve Output
    ,                        !- Maximum Curve Output
    Temperature,             !- Input Unit Type for X
    Temperature,             !- Input Unit Type for Y
    Dimensionless;           !- Output Unit Type

  Curve:Cubic,
    HeatingEIRLowPLR,        !- Name
    0.1400093,               !- Coefficient1 Constant
    0.6415002,               !- Coefficient2 x
    0.1339047,               !- Coefficient3 x**2
    0.0845859,               !- Coefficient4 x**3
    0,                       !- Minimum Value of x
    1,                       !- Maximum Value of x
    ,                        !- Minimum Curve Output
    ,                        !- Maximum Curve Output
    Dimensionless,           !- Input Unit Type for X
    Dimensionless;           !- Output Unit Type

  Curve:Quadratic,
    HeatingEIRHiPLR,         !- Name
    2.4294355,               !- Coefficient1 Constant
    -2.235887,               !- Coefficient2 x
    0.8064516,               !- Coefficient3 x**2
    1.0,                     !- Minimum Value of x
    1.5,                     !- Maximum Value of x
    ,                        !- Minimum Curve Output
    ,                        !- Maximum Curve Output
    Dimensionless,           !- Input Unit Type for X
    Dimensionless;           !- Output Unit Type

  Curve:Linear,
    HeatingCombRatio,        !- Name
    0.96034,                 !- Coefficient1 Constant
    0.03966,                 !- Coefficient2 x
    1.0,                     !- Minimum Value of x
    1.5,                     !- Maximum Value of x
    1.0,                     !- Minimum Curve Output
    1.023,                   !- Maximum Curve Output
    Dimensionless,           !- Input Unit Type for X
    Dimensionless;           !- Output Unit Type

  Curve:Biquadratic,
    CoolingLengthCorrectionFactor,  !- Name
    1.0693794,               !- Coefficient1 Constant
    -0.0014951,              !- Coefficient2 x
    2.56E-06,                !- Coefficient3 x**2
    -0.1151104,              !- Coefficient4 y
    0.0511169,               !- Coefficient5 y**2
    -0.0004369,              !- Coefficient6 x*y
    8,                       !- Minimum Value of x
    175,                     !- Maximum Value of x
    0.5,                     !- Minimum Value of y
    1.5,                     !- Maximum Value of y
    ,                        !- Minimum Curve Output
    ,                        !- Maximum Curve Output
    Temperature,             !- Input Unit Type for X
    Temperature,             !- Input Unit Type for Y
    Dimensionless;           !- Output Unit Type

  ZoneTerminalUnitList,
    VRF Heat Pump TU List,   !- Zone Terminal Unit List Name
    TU3,                     !- Zone Terminal Unit Name 1
    TU4,                     !- Zone Terminal Unit Name 2
    TU1,                     !- Zone Terminal Unit Name 3
    TU2,                     !- Zone Terminal Unit Name 4
    TU5;                     !- Zone Terminal Unit Name 5

  ZoneHVAC:TerminalUnit:VariableRefrigerantFlow,
    TU1,                     !- Zone Terminal Unit Name
    VRFAvailSched,           !- Terminal Unit Availability Schedule
    TU1 Inlet Node,          !- Terminal Unit Air Inlet Node Name
    TU1 Outlet Node,         !- Terminal Unit Air Outlet Node Name
    autosize,                !- Cooling Supply Air Flow Rate {m3/s}
    autosize,                !- No Cooling Supply Air Flow Rate {m3/s}
    autosize,                !- Heating Supply Air Flow Rate {m3/s}
    autosize,                !- No Heating Supply Air Flow Rate {m3/s}
    0,                       !- Cooling Outdoor Air Flow Rate {m3/s}
    0,                       !- Heating Outdoor Air Flow Rate {m3/s}
    0,                       !- No Load Outdoor Air Flow Rate {m3/s}
    VRFFanSchedule1,          !- Supply Air Fan Operating Mode Schedule Name
    drawthrough,             !- Supply Air Fan Placement
    Fan:SystemModel,      !- Supply Air Fan Object Type
    TU1 VRF Supply Fan,      !- Supply Air Fan Object Name
    ,                        !- Outside Air Mixer Object Type
    ,                        !- Outside Air Mixer Object Name
    COIL:Cooling:DX:VariableRefrigerantFlow,  !- Cooling Coil Object Type
    TU1 VRF DX Cooling Coil, !- Cooling Coil Object Name
    COIL:Heating:DX:VariableRefrigerantFlow,  !- Heating Coil Object Type
    TU1 VRF DX Heating Coil, !- Heating Coil Object Name
    30,                      !- Zone Terminal Unit On Parasitic Electric Energy Use {W}
    20,                      !- Zone Terminal Unit Off Parasitic Electric Energy Use {W}
    ,                        !- Rated Heating Capacity Sizing Ratio {W/W}
    ,                        !- Availability Manager List Name
    ,                        !- Design Specification ZoneHVAC Sizing Object Name
    ,                        !- Supplemental Heating Coil Object Type
    ,                        !- Supplemental Heating Coil Name
    ,                        !- Maximum Supply Air Temperature from Supplemental Heater {C}
    ,                        !- Maximum Outdoor Dry-Bulb Temperature for Supplemental Heater Operation {C}
!    ;                        !- Controlling Zone or Thermostat Location
    ,                        !- Controlling Zone or Thermostat Location
    UnitarySystemPerformance:Multispeed,  !- Design Specification Multispeed Object Type
    Sys 1 WaterToAirHP System MultiSpeed Performance;  !- Design Specification Multispeed Object Name

  UnitarySystemPerformance:Multispeed,
    Sys 1 WaterToAirHP System MultiSpeed Performance,  !- Name
    2,                       !- Number of Speeds for Heating
    2,                       !- Number of Speeds for Cooling
    No,                      !- Single Mode Operation
    ,                        !- No Load Supply Air Flow Rate Ratio
    autosize,                !- Heating Speed 1 Supply Air Flow Ratio
    autosize,                !- Cooling Speed 1 Supply Air Flow Ratio
    autosize,                !- Heating Speed 2 Supply Air Flow Ratio
    autosize,                !- Cooling Speed 2 Supply Air Flow Ratio
    autosize,                !- Heating Speed 3 Supply Air Flow Ratio
    autosize,                !- Cooling Speed 3 Supply Air Flow Ratio
    autosize,                !- Heating Speed 4 Supply Air Flow Ratio
    autosize,                !- Cooling Speed 4 Supply Air Flow Ratio
    autosize,                !- Heating Speed 5 Supply Air Flow Ratio
    autosize,                !- Cooling Speed 5 Supply Air Flow Ratio
    autosize,                !- Heating Speed 6 Supply Air Flow Ratio
    autosize,                !- Cooling Speed 6 Supply Air Flow Ratio
    autosize,                !- Heating Speed 7 Supply Air Flow Ratio
    autosize,                !- Cooling Speed 7 Supply Air Flow Ratio