! VSWaterHeaterHeatPumpStratifiedTank.idf
!
! Basic file description:
! This input file illustrates WATER USE EQUIPMENT objects connected to a WATER HEATER:STRATIFIED object in a simple
! plant loop for domestic hot water.
!
! Run:      1 short run period.
! Building: None.
! System:   None.
! Plant:    Plant loop with one WaterHeater:Stratified object with variable-speed heat pump water heating connected to two water use equipment

  Version,24.1;

  Building,
    Water Heater DHW Plant Loop Example,  !- Name
    0.0,                     !- North Axis {deg}
    Suburbs,                 !- Terrain
    0.04,                    !- Loads Convergence Tolerance Value {W}
    0.04,                    !- Temperature Convergence Tolerance Value {deltaC}
    FullInteriorAndExterior, !- Solar Distribution
    25,                      !- Maximum Number of Warmup Days
    6;                       !- Minimum Number of Warmup Days

  Timestep,6;

  GlobalGeometryRules,
    UpperLeftCorner,         !- Starting Vertex Position
    CounterClockWise,        !- Vertex Entry Direction
    Relative;                !- Coordinate System

  Site:Location,
    CHICAGO_IL_USA_WMO_725300,  !- Name
    42.00,                   !- Latitude {deg}
    -87.88,                  !- Longitude {deg}
    -6.00,                   !- Time Zone {hr}
    190.00;                  !- Elevation {m}

! CHICAGO_IL_USA Annual Heating 99%, MaxDB=-17.3°C

  SizingPeriod:DesignDay,
    CHICAGO Ann Htg 99% Condns DB,  !- Name
    1,                       !- Month
    21,                      !- Day of Month
    WinterDesignDay,         !- Day Type
    -17.3,                   !- Maximum Dry-Bulb Temperature {C}
    0.0,                     !- Daily Dry-Bulb Temperature Range {deltaC}
    ,                        !- Dry-Bulb Temperature Range Modifier Type
    ,                        !- Dry-Bulb Temperature Range Modifier Day Schedule Name
    Wetbulb,                 !- Humidity Condition Type
    -17.3,                   !- Wetbulb or DewPoint at Maximum Dry-Bulb {C}
    ,                        !- Humidity Condition Day Schedule Name
    ,                        !- Humidity Ratio at Maximum Dry-Bulb {kgWater/kgDryAir}
    ,                        !- Enthalpy at Maximum Dry-Bulb {J/kg}
    ,                        !- Daily Wet-Bulb Temperature Range {deltaC}
    99063,                   !- Barometric Pressure {Pa}
    4.9,                     !- Wind Speed {m/s}
    270,                     !- Wind Direction {deg}
    No,                      !- Rain Indicator
    No,                      !- Snow Indicator
    No,                      !- Daylight Saving Time Indicator
    ASHRAEClearSky,          !- Solar Model Indicator
    ,                        !- Beam Solar Day Schedule Name
    ,                        !- Diffuse Solar Day Schedule Name
    ,                        !- ASHRAE Clear Sky Optical Depth for Beam Irradiance (taub) {dimensionless}
    ,                        !- ASHRAE Clear Sky Optical Depth for Diffuse Irradiance (taud) {dimensionless}
    0.0;                     !- Sky Clearness

! CHICAGO_IL_USA Annual Cooling (DB=>MWB) 1%, MaxDB=31.5°C MWB=23°C

  SizingPeriod:DesignDay,
    CHICAGO Ann Clg 1% Condns DB=>MWB,  !- Name
    7,                       !- Month
    21,                      !- Day of Month
    SummerDesignDay,         !- Day Type
    31.5,                    !- Maximum Dry-Bulb Temperature {C}
    10.7,                    !- Daily Dry-Bulb Temperature Range {deltaC}
    ,                        !- Dry-Bulb Temperature Range Modifier Type
    ,                        !- Dry-Bulb Temperature Range Modifier Day Schedule Name
    Wetbulb,                 !- Humidity Condition Type
    23,                      !- Wetbulb or DewPoint at Maximum Dry-Bulb {C}
    ,                        !- Humidity Condition Day Schedule Name
    ,                        !- Humidity Ratio at Maximum Dry-Bulb {kgWater/kgDryAir}
    ,                        !- Enthalpy at Maximum Dry-Bulb {J/kg}
    ,                        !- Daily Wet-Bulb Temperature Range {deltaC}
    99063,                   !- Barometric Pressure {Pa}
    5.3,                     !- Wind Speed {m/s}
    230,                     !- Wind Direction {deg}
    No,                      !- Rain Indicator
    No,                      !- Snow Indicator
    No,                      !- Daylight Saving Time Indicator
    ASHRAEClearSky,          !- Solar Model Indicator
    ,                        !- Beam Solar Day Schedule Name
    ,                        !- Diffuse Solar Day Schedule Name
    ,                        !- ASHRAE Clear Sky Optical Depth for Beam Irradiance (taub) {dimensionless}
    ,                        !- ASHRAE Clear Sky Optical Depth for Diffuse Irradiance (taud) {dimensionless}
    1.0;                     !- Sky Clearness

  RunPeriod,
    April,                   !- Name
    4,                       !- Begin Month
    1,                       !- Begin Day of Month
    ,                        !- Begin Year
    4,                       !- End Month
    3,                       !- End Day of Month
    ,                        !- End Year
    Tuesday,                 !- Day of Week for Start Day
    Yes,                     !- Use Weather File Holidays and Special Days
    Yes,                     !- Use Weather File Daylight Saving Period
    No,                      !- Apply Weekend Holiday Rule
    Yes,                     !- Use Weather File Rain Indicators
    Yes;                     !- Use Weather File Snow Indicators

  SimulationControl,
    NO,                      !- Do Zone Sizing Calculation
    NO,                      !- Do System Sizing Calculation
    NO,                      !- Do Plant Sizing Calculation
    NO,                      !- Run Simulation for Sizing Periods
    YES,                     !- Run Simulation for Weather File Run Periods
    No,                      !- Do HVAC Sizing Simulation for Sizing Periods
    1;                       !- Maximum Number of HVAC Sizing Simulation Passes

  Site:WaterMainsTemperature,
    CORRELATION,             !- Calculation Method
    ,                        !- Temperature Schedule Name
    9.69,                    !- Annual Average Outdoor Air Temperature {C}
    28.1;                    !- Maximum Difference In Monthly Average Outdoor Air Temperatures {deltaC}

  ScheduleTypeLimits,
    Any Number;              !- Name

  Schedule:Compact,
    Always On,               !- Name
    Any Number,              !- Schedule Type Limits Name
    THROUGH: 12/31,          !- Field 1
    FOR: AllDays,            !- Field 2
    UNTIL: 24:00,1;          !- Field 3

  Schedule:Compact,
    Ambient Temp Schedule,   !- Name
    Any Number,              !- Schedule Type Limits Name
    THROUGH: 12/31,          !- Field 1
    FOR: AllDays,            !- Field 2
    UNTIL: 24:00,22.0;       !- Field 3

  Schedule:Compact,
    Hot Water Set Point Temp Schedule,  !- Name
    Any Number,              !- Schedule Type Limits Name
    THROUGH: 12/31,          !- Field 1
    FOR: AllDays,            !- Field 2
    UNTIL: 24:00,48.89;      !- Field 3

  Schedule:Compact,
    Sinks and Showers Temp Schedule,  !- Name
    Any Number,              !- Schedule Type Limits Name
    THROUGH: 12/31,          !- Field 1
    FOR: AllDays,            !- Field 2
    UNTIL: 24:00,40.56;      !- Field 3

!***PLANT DHW LOOP***

  Sizing:Plant,
    DHW Loop,                !- Plant or Condenser Loop Name
    HEATING,                 !- Loop Type
    82.,                     !- Design Loop Exit Temperature {C}
    11;                      !- Loop Design Temperature Difference {deltaC}

  PlantLoop,
    DHW Loop,                !- Name
    WATER,                   !- Fluid Type
    ,                        !- User Defined Fluid Type
    DHW Loop Operation,      !- Plant Equipment Operation Scheme Name
    Water Heater Use Loop Outlet Node,  !- Loop Temperature Setpoint Node Name
    100,                     !- Maximum Loop Temperature {C}
    3,                       !- Minimum Loop Temperature {C}
    AUTOSIZE,                !- Maximum Loop Flow Rate {m3/s}
    0,                       !- Minimum Loop Flow Rate {m3/s}
    AUTOSIZE,                !- Plant Loop Volume {m3}
    Water Heater Use Loop Inlet Node,  !- Plant Side Inlet Node Name
    Water Heater Use Loop Outlet Node,  !- Plant Side Outlet Node Name
    Water Heater Use Branches,  !- Plant Side Branch List Name
    Water Heater Use Connectors,  !- Plant Side Connector List Name
    Demand Inlet Node,       !- Demand Side Inlet Node Name
    Demand Outlet Node,      !- Demand Side Outlet Node Name
    Demand Branches,         !- Demand Side Branch List Name
    Demand Connectors,       !- Demand Side Connector List Name
    OPTIMAL;                 !- Load Distribution Scheme

  PlantEquipmentOperationSchemes,
    DHW Loop Operation,      !- Name
    PlantEquipmentOperation:HeatingLoad,  !- Control Scheme 1 Object Type
    DHW Control Scheme,      !- Control Scheme 1 Name
    Always On;               !- Control Scheme 1 Schedule Name

  PlantEquipmentOperation:HeatingLoad,
    DHW Control Scheme,      !- Name
    0,                       !- Load Range 1 Lower Limit {W}
    10000000,                !- Load Range 1 Upper Limit {W}
    DHW Plant Equipment;     !- Range 1 Equipment List Name

  PlantEquipmentList,
    DHW Plant Equipment,     !- Name
    WaterHeater:HeatPump:PumpedCondenser,  !- Equipment 1 Object Type
    PlantHeatPumpWaterHeater;!- Equipment 1 Name

  SetpointManager:Scheduled,
    DHW Loop Set Point Manager,  !- Name
    Temperature,             !- Control Variable
    Hot Water Set Point Temp Schedule,  !- Schedule Name
    Water Heater Use Loop Outlet Node;  !- Setpoint Node or NodeList Name

!***PLANT DHW LOOP: WATER HEATER SIDE***

  BranchList,
    Water Heater Use Branches,  !- Name
    Water Heater Use Inlet Branch,  !- Branch 1 Name
    Water Heater Use Branch, !- Branch 2 Name
    Water Heater Use Outlet Branch;  !- Branch 3 Name

  ConnectorList,
    Water Heater Use Connectors,  !- Name
    Connector:Splitter,      !- Connector 1 Object Type
    Water Heater Use Splitter,  !- Connector 1 Name
    Connector:Mixer,         !- Connector 2 Object Type
    Water Heater Use Mixer;  !- Connector 2 Name

  Connector:Splitter,
    Water Heater Use Splitter,  !- Name
    Water Heater Use Inlet Branch,  !- Inlet Branch Name
    Water Heater Use Branch; !- Outlet Branch 1 Name

  Connector:Mixer,
    Water Heater Use Mixer,  !- Name
    Water Heater Use Outlet Branch,  !- Outlet Branch Name
    Water Heater Use Branch; !- Inlet Branch 1 Name

  Branch,
    Water Heater Use Inlet Branch,  !- Name
    ,                        !- Pressure Drop Curve Name
    Pump:VariableSpeed,      !- Component 1 Object Type
    DHW Pump,                !- Component 1 Name
    Water Heater Use Loop Inlet Node,  !- Component 1 Inlet Node Name
    DHW Pump Outlet Node;    !- Component 1 Outlet Node Name

! No pumping energy; water mains pressure only

  Pump:VariableSpeed,
    DHW Pump,                !- Name
    Water Heater Use Loop Inlet Node,  !- Inlet Node Name
    DHW Pump Outlet Node,    !- Outlet Node Name
    AUTOSIZE,                !- Design Maximum Flow Rate {m3/s}
    0,                       !- Design Pump Head {Pa}
    AUTOSIZE,                !- Design Power Consumption {W}
    1.0,                     !- Motor Efficiency
    0.0,                     !- Fraction of Motor Inefficiencies to Fluid Stream
    0,                       !- Coefficient 1 of the Part Load Performance Curve
    1,                       !- Coefficient 2 of the Part Load Performance Curve
    0,                       !- Coefficient 3 of the Part Load Performance Curve
    0,                       !- Coefficient 4 of the Part Load Performance Curve
    0,                       !- Design Minimum Flow Rate {m3/s}
    INTERMITTENT;            !- Pump Control Type

  Branch,
    Water Heater Use Branch, !- Name
    ,                        !- Pressure Drop Curve Name
    WaterHeater:HeatPump:PumpedCondenser,  !- Component 1 Object Type
    PlantHeatPumpWaterHeater,!- Component 1 Name
    Water Heater Use Inlet Node,  !- Component 1 Inlet Node Name
    Water Heater Use Outlet Node;  !- Component 1 Outlet Node Name

  WaterHeater:HeatPump:PumpedCondenser,
    PlantHeatPumpWaterHeater,!- Name
    PlantHPWHSch,            !- Availability Schedule Name
    PlantHPWHTempSch,        !- Compressor Setpoint Temperature Schedule Name
    2.0,                     !- Dead Band Temperature Difference {deltaC}
    HPPlantWaterInletNode,   !- Condenser Water Inlet Node Name
    HPPlantWaterOutletNode,  !- Condenser Water Outlet Node Name
    0.00115525,              !- Condenser Water Flow Rate {m3/s}
    1.00695,                 !- Evaporator Air Flow Rate {m3/s}
    OutdoorAirOnly,          !- Inlet Air Configuration
    ,                        !- Air Inlet Node Name
    ,                        !- Air Outlet Node Name
    HPPlantAirInletNode,     !- Outdoor Air Node Name
    HPPlantAirOutletNode,    !- Exhaust Air Node Name
    ,                        !- Inlet Air Temperature Schedule Name
    ,                        !- Inlet Air Humidity Schedule Name
    ,                        !- Inlet Air Zone Name
    WaterHeater:Stratified,  !- Tank Object Type
    Water Heater Tank,       !- Tank Name
    Water Heater Use Inlet Node,  !- Tank Use Side Inlet Node Name
    Water Heater Use Outlet Node,  !- Tank Use Side Outlet Node Name
    Coil:WaterHeating:AirToWaterHeatPump:VariableSpeed,  !- DX Coil Object Type
    HPWHPlantDXCoilVS,       !- DX Coil Name
    11.0,                    !- Minimum Inlet Air Temperature for Compressor Operation {C}
    ,                        !- Maximum Inlet Air Temperature for Compressor Operation {C}
    Outdoors,                !- Compressor Location
    ,                        !- Compressor Ambient Temperature Schedule Name
    Fan:OnOff,               !- Fan Object Type
    HPWHPlantFan,            !- Fan Name
    BlowThrough,             !- Fan Placement
    ,                        !- On Cycle Parasitic Electric Load {W}
    ,                        !- Off Cycle Parasitic Electric Load {W}
    ,                        !- Parasitic Heat Rejection Location
    ,                        !- Inlet Air Mixer Node Name
    ,                        !- Outlet Air Splitter Node Name
    ,                        !- Inlet Air Mixer Schedule Name
    ,                        !- Tank Element Control Logic
    1.0;                     !- Control Sensor 1 Height In Stratified Tank {m}

  WaterHeater:Stratified,
    Water Heater Tank,       !- Name
    Water Heater,            !- End-Use Subcategory
    0.1893,                  !- Tank Volume {m3}
    1.4,                     !- Tank Height {m}
    VerticalCylinder,        !- Tank Shape
    ,                        !- Tank Perimeter {m}
    82.2222,                 !- Maximum Temperature Limit {C}
    MasterSlave,             !- Heater Priority Control
    Hot Water Set Point Temp Schedule,  !- Heater 1 Setpoint Temperature Schedule Name
    2.0,                     !- Heater 1 Deadband Temperature Difference {deltaC}
    4500,                    !- Heater 1 Capacity {W}
    1.0,                     !- Heater 1 Height {m}
    Hot Water Set Point Temp Schedule,  !- Heater 2 Setpoint Temperature Schedule Name
    5.0,                     !- Heater 2 Deadband Temperature Difference {deltaC}
    4500,                    !- Heater 2 Capacity {W}
    0.0,                     !- Heater 2 Height {m}
    ELECTRICITY,             !- Heater Fuel Type
    0.98,                    !- Heater Thermal Efficiency
    10,                      !- Off Cycle Parasitic Fuel Consumption Rate {W}
    ELECTRICITY,             !- Off Cycle Parasitic Fuel Type
    0,                       !- Off Cycle Parasitic Heat Fraction to Tank
    ,                        !- Off Cycle Parasitic Height {m}
    10,                      !- On Cycle Parasitic Fuel Consumption Rate {W}
    ELECTRICITY,             !- On Cycle Parasitic Fuel Type
    0,                       !- On Cycle Parasitic Heat Fraction to Tank
    ,                        !- On Cycle Parasitic Height {m}
    SCHEDULE,                !- Ambient Temperature Indicator
    Ambient Temp Schedule,   !- Ambient Temperature Schedule Name
    ,                        !- Ambient Temperature Zone Name
    ,                        !- Ambient Temperature Outdoor Air Node Name
    0.846,                   !- Uniform Skin Loss Coefficient per Unit Area to Ambient Temperature {W/m2-K}
    ,                        !- Skin Loss Fraction to Zone
    ,                        !- Off Cycle Flue Loss Coefficient to Ambient Temperature {W/K}
    ,                        !- Off Cycle Flue Loss Fraction to Zone
    ,                        !- Peak Use Flow Rate {m3/s}
    ,                        !- Use Flow Rate Fraction Schedule Name
    ,                        !- Cold Water Supply Temperature Schedule Name
    Water Heater Use Inlet Node,  !- Use Side Inlet Node Name
    Water Heater Use Outlet Node,  !- Use Side Outlet Node Name
    1.0,                     !- Use Side Effectiveness
    ,                        !- Use Side Inlet Height {m}
    ,                        !- Use Side Outlet Height {m}
    HPPlantWaterOutletNode,  !- Source Side Inlet Node Name
    HPPlantWaterInletNode,   !- Source Side Outlet Node Name
    ,                        !- Source Side Effectiveness
    ,                        !- Source Side Inlet Height {m}
    ,                        !- Source Side Outlet Height {m}
    FIXED,                   !- Inlet Mode
    autosize,                !- Use Side Design Flow Rate {m3/s}
    0.00115525,              !- Source Side Design Flow Rate {m3/s}
    ,                        !- Indirect Water Heating Recovery Time {hr}
    6,                       !- Number of Nodes
    0.1,                     !- Additional Destratification Conductivity {W/m-K}
    0.15,                    !- Node 1 Additional Loss Coefficient {W/K}
    ,                        !- Node 2 Additional Loss Coefficient {W/K}
    ,                        !- Node 3 Additional Loss Coefficient {W/K}
    ,                        !- Node 4 Additional Loss Coefficient {W/K}
    ,                        !- Node 5 Additional Loss Coefficient {W/K}
    0.1;                     !- Node 6 Additional Loss Coefficient {W/K}

  Coil:WaterHeating:AirToWaterHeatPump:VariableSpeed,
    HPWHPlantDXCoilVS,       !- Name
    10,                      !- Number of Speeds {dimensionless}
    10,                      !- Nominal Speed Level {dimensionless}
    25000.0,                 !- Rated Water Heating Capacity {W}
    29.44,                   !- Rated Evaporator Inlet Air Dry-Bulb Temperature {C}
    22.22,                   !- Rated Evaporator Inlet Air Wet-Bulb Temperature {C}
    55.72,                   !- Rated Condenser Inlet Water Temperature {C}
    1.00695,                 !- Rated Evaporator Air Flow Rate {m3/s}
    0.00115525,              !- Rated Condenser Water Flow Rate {m3/s}
    No,                      !- Evaporator Fan Power Included in Rated COP
    No,                      !- Condenser Pump Power Included in Rated COP
    No,                      !- Condenser Pump Heat Included in Rated Heating Capacity and Rated COP
    0.1,                     !- Fraction of Condenser Pump Heat to Water
    HPPlantFanAirOutletNode, !- Evaporator Air Inlet Node Name
    HPPlantAirOutletNode,    !- Evaporator Air Outlet Node Name
    HPPlantWaterInletNode,   !- Condenser Water Inlet Node Name
    HPPlantWaterOutletNode,  !- Condenser Water Outlet Node Name
    100.0,                   !- Crankcase Heater Capacity {W}
    ,                        !- Crankcase Heater Capacity Function of Temperature Curve Name
    5.0,                     !- Maximum Ambient Temperature for Crankcase Heater Operation {C}
    WetBulbTemperature,      !- Evaporator Air Temperature Type for Curve Objects
    HPWHPLFFPLR,             !- Part Load Fraction Correlation Curve Name
    400.00,                  !- Rated Water Heating Capacity at Speed 1 {W}
    5.0,                     !- Rated Water Heating COP at Speed 1 {W/W}
    0.80,                    !- Rated Sensible Heat Ratio at Speed 1
    0.020140,                !- Speed 1 Reference Unit Rated Air Flow Rate {m3/s}
    0.000018,                !- Speed 1 Reference Unit Rated Water Flow Rate {m3/s}
    10.0,                    !- Speed 1 Reference Unit Water Pump Input Power At Rated Conditions {W}
    HPWHHeatingCapFTemp,     !- Speed 1 Total WH Capacity Function of Temperature Curve Name
    ConstantCubic,           !- Speed 1 Total WH Capacity Function of Air Flow Fraction Curve Name
    ConstantCubic,           !- Speed 1 Total WH Capacity Function of Water Flow Fraction Curve Name
    HPWHHeatingCOPFTemp,     !- Speed 1 COP Function of Temperature Curve Name
    ConstantCubic,           !- Speed 1 COP Function of Air Flow Fraction Curve Name
    ConstantCubic,           !- Speed 1 COP Function of Water Flow Fraction Curve Name
    800.00,                  !- Rated Water Heating Capacity at Speed 2 {W}
    4.8,                     !- Rated Water Heating COP at Speed 2 {W/W}
    0.79,                    !- Rated Sensible Heat Ratio at Speed 2
    0.040280,                !- Speed 2 Reference Unit Rated Air Flow Rate {m3/s}
    0.000036,                !- Speed 2 Reference Unit Rated Water Flow Rate {m3/s}
    10.0,                    !- Speed 2 Reference Unit Water Pump Input Power At Rated Conditions {dimensionless}
    HPWHHeatingCapFTemp,     !- Speed 2 Total WH Capacity Function of Temperature Curve Name
    ConstantCubic,           !- Speed 2 Total WH Capacity Function of Air Flow Fraction Curve Name
    ConstantCubic,           !- Speed 2 Total WH Capacity Function of Water Flow Fraction Curve Name
    HPWHHeatingCOPFTemp,     !- Speed 2 COP Function of Temperature Curve Name
    ConstantCubic,           !- Speed 2 COP Function of Air Flow Fraction Curve Name
    ConstantCubic,           !- Speed 2 COP Function of Water Flow Fraction Curve Name
    1200.00,                 !- Rated Water Heating Capacity at speed 3 {W}
    4.4,                     !- Rated Water Heating COP at Speed 3 {W/W}
    0.78,                    !- Rated Sensible Heat Ratio at Speed 3
    0.060420,                !- Speed 3 Reference Unit Rated Air Flow Rate {m3/s}
    0.000054,                !- Speed 3 Reference Unit Rated Water Flow Rate {m3/s}
    10.0,                    !- Speed 3 Reference Unit Water Pump Input Power At Rated Conditions {dimensionless}
    HPWHHeatingCapFTemp,     !- Speed 3 Total WH Capacity Function of Temperature Curve Name
    ConstantCubic,           !- Speed 3 Total WH Capacity Function of Air Flow Fraction Curve Name
    ConstantCubic,           !- Speed 3 Total WH Capacity Function of Water Flow Fraction Curve Name
    HPWHHeatingCOPFTemp,     !- Speed 3 COP Function of Temperature Curve Name
    ConstantCubic,           !- Speed 3 COP Function of Air Flow Fraction Curve Name
    ConstantCubic,           !- Speed 3 COP Function of Water Flow Fraction Curve Name
    1600.00,                 !- Rated Water Heating Capacity at Speed 4 {W}
    4.0,                     !- Rated Water Heating COP at Speed 4 {W/W}
    0.77,                    !- Rated Sensible Heat Ratio at Speed 4
    0.080560,                !- Speed 4 Reference Unit Rated Air Flow Rate {m3/s}
    0.000072,                !- Speed 4 Reference Unit Rated Water Flow Rate {m3/s}
    10.0,                    !- Speed 4 Reference Unit Water Pump Input Power At Rated Conditions {dimensionless}
    HPWHHeatingCapFTemp,     !- Speed 4 Total WH Capacity Function of Temperature Curve Name
    ConstantCubic,           !- Speed 4 Total WH Capacity Function of Air Flow Fraction Curve Name
    ConstantCubic,           !- Speed 4 Total WH Capacity Function of Water Flow Fraction Curve Name
    HPWHHeatingCOPFTemp,     !- Speed 4 COP Function of Temperature Curve Name
    ConstantCubic,           !- Speed 4 COP Function of Air Flow Fraction Curve Name
    ConstantCubic,           !- Speed 4 COP Function of Water Flow Fraction Curve Name
    2000.00,                 !- Rated Water Heating Capacity at Speed 5 {W}
    3.8,                     !- Rated Water Heating COP at Speed 5 {W/W}
    0.76,                    !- Rated Sensible Heat Ratio at Speed 5
    0.100700,                !- Speed 5 Reference Unit Rated Air Flow Rate {m3/s}
    0.000090,                !- Speed 5 Reference Unit Rated Water Flow Rate {m3/s}
    10.0,                    !- Speed 5 Reference Unit Water Pump Input Power At Rated Conditions {dimensionless}
    HPWHHeatingCapFTemp,     !- Speed 5 Total WH Capacity Function of Temperature Curve Name
    ConstantCubic,           !- Speed 5 Total WH Capacity Function of Air Flow Fraction Curve Name
    ConstantCubic,           !- Speed 5 Total WH Capacity Function of Water Flow Fraction Curve Name
    HPWHHeatingCOPFTemp,     !- Speed 5 COP Function of Temperature Curve Name
    ConstantCubic,           !- Speed 5 COP Function of Air Flow Fraction Curve Name
    ConstantCubic,           !- Speed 5 COP Function of Water Flow Fraction Curve Name
    2400.00,                 !- Rated Water Heating Capacity at Speed 6 {W}
    3.4,                     !- Rated Water Heating COP at Speed 6 {W/W}
    0.75,                    !- Rated Sensible Heat Ratio at Speed 6
    0.120840,                !- Speed 6 Reference Unit Rated Air Flow Rate {m3/s}
    0.000108,                !- Speed 6 Reference Unit Rated Water Flow Rate {m3/s}
    10.0,                    !- Speed 6 Reference Unit Water Pump Input Power At Rated Conditions {dimensionless}
    HPWHHeatingCapFTemp,     !- Speed 6 Total WH Capacity Function of Temperature Curve Name
    ConstantCubic,           !- Speed 6 Total WH Capacity Function of Air Flow Fraction Curve Name
    ConstantCubic,           !- Speed 6 Total WH Capacity Function of Water Flow Fraction Curve Name
    HPWHHeatingCOPFTemp,     !- Speed 6 COP Function of Temperature Curve Name
    ConstantCubic,           !- Speed 6 COP Function of Air Flow Fraction Curve Name
    ConstantCubic,           !- Speed 6 COP Function of Water Flow Fraction Curve Name
    2800.00,                 !- Rated Water Heating Capacity at Speed 7 {W}
    3.0,                     !- Rated Water Heating COP at Speed 7 {W/W}
    0.74,                    !- Rated Sensible Heat Ratio at Speed 7
    0.140980,                !- Speed 7 Reference Unit Rated Air Flow Rate {m3/s}
    0.000126,                !- Speed 7 Reference Unit Rated Water Flow Rate {m3/s}
    10.0,                    !- Speed 7 Reference Unit Water Pump Input Power At Rated Conditions {dimensionless}
    HPWHHeatingCapFTemp,     !- Speed 7 Total WH Capacity Function of Temperature Curve Name
    ConstantCubic,           !- Speed 7 Total WH Capacity Function of Air Flow Fraction Curve Name
    ConstantCubic,           !- Speed 7 Total WH Capacity Function of Water Flow Fraction Curve Name
    HPWHHeatingCOPFTemp,     !- Speed 7 COP Function of Temperature Curve Name
    ConstantCubic,           !- Speed 7 COP Function of Air Flow Fraction Curve Name
    ConstantCubic,           !- Speed 7 COP Function of Water Flow Fraction Curve Name
    3200.00,                 !- Rated Water Heating Capacity at Speed 8 {W}
    2.6,                     !- Rated Water Heating COP at Speed 8 {W/W}
    0.73,                    !- Rated Sensible Heat Ratio at Speed 8
    0.161120,                !- Speed 8 Reference Unit Rated Air Flow Rate {m3/s}
    0.000144,                !- Speed 8 Reference Unit Rated Water Flow Rate {m3/s}
    10.0,                    !- Speed 8 Reference Unit Water Pump Input Power At Rated Conditions {dimensionless}
    HPWHHeatingCapFTemp,     !- Speed 8 Total WH Capacity Function of Temperature Curve Name
    ConstantCubic,           !- Speed 8 Total WH Capacity Function of Air Flow Fraction Curve Name
    ConstantCubic,           !- Speed 8 Total WH Capacity Function of Water Flow Fraction Curve Name
    HPWHHeatingCOPFTemp,     !- Speed 8 COP Function of Temperature Curve Name
    ConstantCubic,           !- Speed 8 COP Function of Air Flow Fraction Curve Name
    ConstantCubic,           !- Speed 8 COP Function of Water Flow Fraction Curve Name
    3600.00,                 !- Rated Water Heating Capacity at Speed 9 {W}
    2.3,                     !- Rated Water Heating COP at Speed 9 {W/W}
    0.72,                    !- Rated Sensible Heat Ratio at Speed 9
    0.181260,                !- Speed 9 Reference Unit Rated Air Flow Rate {m3/s}
    0.000162,                !- Speed 9 Reference Unit Rated Water Flow Rate {m3/s}
    10.0,                    !- Speed 9 Reference Unit Water Pump Input Power At Rated Conditions {dimensionless}
    HPWHHeatingCapFTemp,     !- Speed 9 Total WH Capacity Function of Temperature Curve Name
    ConstantCubic,           !- Speed 9 Total WH Capacity Function of Air Flow Fraction Curve Name
    ConstantCubic,           !- Speed 9 Total WH Capacity Function of Water Flow Fraction Curve Name
    HPWHHeatingCOPFTemp,     !- Speed 9 COP Function of Temperature Curve Name
    ConstantCubic,           !- Speed 9 COP Function of Air Flow Fraction Curve Name
    ConstantCubic,           !- Speed 9 COP Function of Water Flow Fraction Curve Name
    4000.00,                 !- Rated Water Heating Capacity at Speed 10 {W}
    2.0,                     !- Rated Water Heating COP at Speed 10 {W/W}
    0.70,                    !- Rated Sensible Heat Ratio at Speed 10
    0.201400,                !- Speed 10 Reference Unit Rated Air Flow Rate {m3/s}
    0.000179,                !- Speed 10 Reference Unit Rated Water Flow Rate {m3/s}