!-Generator IDFEditor 1.50
!-Option SortedOrder UseSpecialFormat
!-NOTE: All comments with '!-' are ignored by the IDFEditor and are generated automatically.
!-      Use '!' comments if they need to be retained when using the IDFEditor.
!-   ===========  ALL OBJECTS IN CLASS: VERSION ===========

  Version,25.1;

!-   ===========  ALL OBJECTS IN CLASS: SIMULATIONCONTROL ===========

  SimulationControl,
    Yes,                     !- Do Zone Sizing Calculation
    Yes,                     !- Do System Sizing Calculation
    Yes,                     !- Do Plant Sizing Calculation
    No,                      !- Run Simulation for Sizing Periods
    Yes,                     !- Run Simulation for Weather File Run Periods
    No,                      !- Do HVAC Sizing Simulation for Sizing Periods
    1;                       !- Maximum Number of HVAC Sizing Simulation Passes

!-   ===========  ALL OBJECTS IN CLASS: BUILDING ===========

  Building,
    Large Office-VAV-HW-Reheat Min Req,  !- Name
    ,                        !- North Axis {deg}
    ,                        !- Terrain
    ,                        !- Loads Convergence Tolerance Value {W}
    ,                        !- Temperature Convergence Tolerance Value {deltaC}
    ,                        !- Solar Distribution
    ,                        !- Maximum Number of Warmup Days
    ;                        !- Minimum Number of Warmup Days

!-   ===========  ALL OBJECTS IN CLASS: TIMESTEP ===========

  Timestep,4;

!-   ===========  ALL OBJECTS IN CLASS: SITE:LOCATION ===========

  Site:Location,
    CHICAGO_IL_USA_WMO_725300,  !- Name
    42.00,                   !- Latitude {deg}
    -87.88,                  !- Longitude {deg}
    -6.00,                   !- Time Zone {hr}
    190.00;                  !- Elevation {m}

!-   ===========  ALL OBJECTS IN CLASS: SIZINGPERIOD:DESIGNDAY ===========

  SizingPeriod:DesignDay,
    CHICAGO Ann Htg 99% Condns DB,  !- Name
    1,                       !- Month
    21,                      !- Day of Month
    WinterDesignDay,         !- Day Type
    -17.3,                   !- Maximum Dry-Bulb Temperature {C}
    0.0,                     !- Daily Dry-Bulb Temperature Range {deltaC}
    ,                        !- Dry-Bulb Temperature Range Modifier Type
    ,                        !- Dry-Bulb Temperature Range Modifier Day Schedule Name
    Wetbulb,                 !- Humidity Condition Type
    -17.3,                   !- Wetbulb or DewPoint at Maximum Dry-Bulb {C}
    ,                        !- Humidity Condition Day Schedule Name
    ,                        !- Humidity Ratio at Maximum Dry-Bulb {kgWater/kgDryAir}
    ,                        !- Enthalpy at Maximum Dry-Bulb {J/kg}
    ,                        !- Daily Wet-Bulb Temperature Range {deltaC}
    99063,                   !- Barometric Pressure {Pa}
    4.9,                     !- Wind Speed {m/s}
    270,                     !- Wind Direction {deg}
    No,                      !- Rain Indicator
    No,                      !- Snow Indicator
    No,                      !- Daylight Saving Time Indicator
    ASHRAEClearSky,          !- Solar Model Indicator
    ,                        !- Beam Solar Day Schedule Name
    ,                        !- Diffuse Solar Day Schedule Name
    ,                        !- ASHRAE Clear Sky Optical Depth for Beam Irradiance (taub) {dimensionless}
    ,                        !- ASHRAE Clear Sky Optical Depth for Diffuse Irradiance (taud) {dimensionless}
    0.0;                     !- Sky Clearness

! CHICAGO_IL_USA Annual Cooling (DB=>MWB) 1%, MaxDB=31.5°C MWB=23°C

  SizingPeriod:DesignDay,
    CHICAGO Ann Clg 1% Condns DB=>MWB,  !- Name
    7,                       !- Month
    21,                      !- Day of Month
    SummerDesignDay,         !- Day Type
    31.5,                    !- Maximum Dry-Bulb Temperature {C}
    10.7,                    !- Daily Dry-Bulb Temperature Range {deltaC}
    ,                        !- Dry-Bulb Temperature Range Modifier Type
    ,                        !- Dry-Bulb Temperature Range Modifier Day Schedule Name
    Wetbulb,                 !- Humidity Condition Type
    23,                      !- Wetbulb or DewPoint at Maximum Dry-Bulb {C}
    ,                        !- Humidity Condition Day Schedule Name
    ,                        !- Humidity Ratio at Maximum Dry-Bulb {kgWater/kgDryAir}
    ,                        !- Enthalpy at Maximum Dry-Bulb {J/kg}
    ,                        !- Daily Wet-Bulb Temperature Range {deltaC}
    99063,                   !- Barometric Pressure {Pa}
    5.3,                     !- Wind Speed {m/s}
    230,                     !- Wind Direction {deg}
    No,                      !- Rain Indicator
    No,                      !- Snow Indicator
    No,                      !- Daylight Saving Time Indicator
    ASHRAEClearSky,          !- Solar Model Indicator
    ,                        !- Beam Solar Day Schedule Name
    ,                        !- Diffuse Solar Day Schedule Name
    ,                        !- ASHRAE Clear Sky Optical Depth for Beam Irradiance (taub) {dimensionless}
    ,                        !- ASHRAE Clear Sky Optical Depth for Diffuse Irradiance (taud) {dimensionless}
    1.0;                     !- Sky Clearness


!-   ===========  ALL OBJECTS IN CLASS: RUNPERIOD ===========

  RunPeriod,
    Run Period 1,            !- Name
    5,                       !- Begin Month
    1,                       !- Begin Day of Month
    2009,                    !- Begin Year
    5,                      !- End Month
    15,                      !- End Day of Month
    2009,                    !- End Year
    Thursday,                !- Day of Week for Start Day
    No,                      !- Use Weather File Holidays and Special Days
    No,                      !- Use Weather File Daylight Saving Period
    No,                      !- Apply Weekend Holiday Rule
    Yes,                     !- Use Weather File Rain Indicators
    Yes;                     !- Use Weather File Snow Indicators

!-   ===========  ALL OBJECTS IN CLASS: SITE:GROUNDTEMPERATURE:BUILDINGSURFACE ===========

  Site:GroundTemperature:BuildingSurface,19.527,19.502,19.536,19.598,20.002,21.64,22.225,22.375,21.449,20.121,19.802,19.633;

!-   ===========  ALL OBJECTS IN CLASS: SITE:WATERMAINSTEMPERATURE ===========

  Site:WaterMainsTemperature,
    Correlation,             !- Calculation Method
    ,                        !- Temperature Schedule Name
    9.69,                    !- Annual Average Outdoor Air Temperature {C}
    28.1;                    !- Maximum Difference In Monthly Average Outdoor Air Temperatures {deltaC}

!-   ===========  ALL OBJECTS IN CLASS: SCHEDULETYPELIMITS ===========

  ScheduleTypeLimits,
    Fractional,              !- Name
    0,                       !- Lower Limit Value
    1,                       !- Upper Limit Value
    Continuous;              !- Numeric Type

  ScheduleTypeLimits,
    blocks-3644_office_1_Core Thermostat Schedule Type Limits,  !- Name
    0,                       !- Lower Limit Value
    4,                       !- Upper Limit Value
    DISCRETE;                !- Numeric Type

  ScheduleTypeLimits,
    Temperature,             !- Name
    ,                        !- Lower Limit Value
    ,                        !- Upper Limit Value
    Continuous,              !- Numeric Type
    temperature;             !- Unit Type

  ScheduleTypeLimits,
    OnOff,                   !- Name
    0,                       !- Lower Limit Value
    1,                       !- Upper Limit Value
    Discrete,                !- Numeric Type
    availability;            !- Unit Type

  ScheduleTypeLimits,
    blocks-3644_office_1_East Perimeter Thermostat Schedule Type Limits,  !- Name
    0,                       !- Lower Limit Value
    4,                       !- Upper Limit Value
    DISCRETE;                !- Numeric Type

  ScheduleTypeLimits,
    blocks-3644_office_1_North Perimeter Thermostat Schedule Type Limits,  !- Name
    0,                       !- Lower Limit Value
    4,                       !- Upper Limit Value
    DISCRETE;                !- Numeric Type

  ScheduleTypeLimits,
    blocks-3644_office_1_South Perimeter Thermostat Schedule Type Limits,  !- Name
    0,                       !- Lower Limit Value
    4,                       !- Upper Limit Value
    DISCRETE;                !- Numeric Type

  ScheduleTypeLimits,
    blocks-3644_office_1_West Perimeter Thermostat Schedule Type Limits,  !- Name
    0,                       !- Lower Limit Value
    4,                       !- Upper Limit Value
    DISCRETE;                !- Numeric Type

  ScheduleTypeLimits,
    blocks-3644_office_2_Core Thermostat Schedule Type Limits,  !- Name
    0,                       !- Lower Limit Value
    4,                       !- Upper Limit Value
    DISCRETE;                !- Numeric Type

  ScheduleTypeLimits,
    blocks-3644_office_2_East Perimeter Thermostat Schedule Type Limits,  !- Name
    0,                       !- Lower Limit Value
    4,                       !- Upper Limit Value
    DISCRETE;                !- Numeric Type

  ScheduleTypeLimits,
    blocks-3644_office_2_North Perimeter Thermostat Schedule Type Limits,  !- Name
    0,                       !- Lower Limit Value
    4,                       !- Upper Limit Value
    DISCRETE;                !- Numeric Type

  ScheduleTypeLimits,
    blocks-3644_office_2_South Perimeter Thermostat Schedule Type Limits,  !- Name
    0,                       !- Lower Limit Value
    4,                       !- Upper Limit Value
    DISCRETE;                !- Numeric Type

  ScheduleTypeLimits,
    blocks-3644_office_2_West Perimeter Thermostat Schedule Type Limits,  !- Name
    0,                       !- Lower Limit Value
    4,                       !- Upper Limit Value
    DISCRETE;                !- Numeric Type

  ScheduleTypeLimits,
    blocks-3645_office_1_Core Thermostat Schedule Type Limits,  !- Name
    0,                       !- Lower Limit Value
    4,                       !- Upper Limit Value
    DISCRETE;                !- Numeric Type

  ScheduleTypeLimits,
    blocks-3645_office_1_East Perimeter Thermostat Schedule Type Limits,  !- Name
    0,                       !- Lower Limit Value
    4,                       !- Upper Limit Value
    DISCRETE;                !- Numeric Type

  ScheduleTypeLimits,
    blocks-3645_office_1_North Perimeter Thermostat Schedule Type Limits,  !- Name
    0,                       !- Lower Limit Value
    4,                       !- Upper Limit Value
    DISCRETE;                !- Numeric Type

  ScheduleTypeLimits,
    blocks-3645_office_1_South Perimeter Thermostat Schedule Type Limits,  !- Name
    0,                       !- Lower Limit Value
    4,                       !- Upper Limit Value
    DISCRETE;                !- Numeric Type

  ScheduleTypeLimits,
    blocks-3645_office_1_West Perimeter Thermostat Schedule Type Limits,  !- Name
    0,                       !- Lower Limit Value
    4,                       !- Upper Limit Value
    DISCRETE;                !- Numeric Type

  ScheduleTypeLimits,
    blocks-3645_office_2_Core Thermostat Schedule Type Limits,  !- Name
    0,                       !- Lower Limit Value
    4,                       !- Upper Limit Value
    DISCRETE;                !- Numeric Type

  ScheduleTypeLimits,
    blocks-3645_office_2_East Perimeter Thermostat Schedule Type Limits,  !- Name
    0,                       !- Lower Limit Value
    4,                       !- Upper Limit Value
    DISCRETE;                !- Numeric Type

  ScheduleTypeLimits,
    blocks-3645_office_2_North Perimeter Thermostat Schedule Type Limits,  !- Name
    0,                       !- Lower Limit Value
    4,                       !- Upper Limit Value
    DISCRETE;                !- Numeric Type

  ScheduleTypeLimits,
    blocks-3645_office_2_South Perimeter Thermostat Schedule Type Limits,  !- Name
    0,                       !- Lower Limit Value
    4,                       !- Upper Limit Value
    DISCRETE;                !- Numeric Type

  ScheduleTypeLimits,
    blocks-3645_office_2_West Perimeter Thermostat Schedule Type Limits,  !- Name
    0,                       !- Lower Limit Value
    4,                       !- Upper Limit Value
    DISCRETE;                !- Numeric Type

  ScheduleTypeLimits,
    blocks-3645_office_3_Core Thermostat Schedule Type Limits,  !- Name
    0,                       !- Lower Limit Value
    4,                       !- Upper Limit Value
    DISCRETE;                !- Numeric Type

  ScheduleTypeLimits,
    blocks-3645_office_3_East Perimeter Thermostat Schedule Type Limits,  !- Name
    0,                       !- Lower Limit Value
    4,                       !- Upper Limit Value
    DISCRETE;                !- Numeric Type

  ScheduleTypeLimits,
    blocks-3645_office_3_North Perimeter Thermostat Schedule Type Limits,  !- Name
    0,                       !- Lower Limit Value
    4,                       !- Upper Limit Value
    DISCRETE;                !- Numeric Type

  ScheduleTypeLimits,
    blocks-3645_office_3_South Perimeter Thermostat Schedule Type Limits,  !- Name
    0,                       !- Lower Limit Value
    4,                       !- Upper Limit Value
    DISCRETE;                !- Numeric Type

  ScheduleTypeLimits,
    blocks-3645_office_3_West Perimeter Thermostat Schedule Type Limits,  !- Name
    0,                       !- Lower Limit Value
    4,                       !- Upper Limit Value
    DISCRETE;                !- Numeric Type

  ScheduleTypeLimits,
    blocks-3645_office_4_Core Thermostat Schedule Type Limits,  !- Name
    0,                       !- Lower Limit Value
    4,                       !- Upper Limit Value
    DISCRETE;                !- Numeric Type

  ScheduleTypeLimits,
    blocks-3645_office_4_East Perimeter Thermostat Schedule Type Limits,  !- Name
    0,                       !- Lower Limit Value
    4,                       !- Upper Limit Value
    DISCRETE;                !- Numeric Type

  ScheduleTypeLimits,
    blocks-3645_office_4_North Perimeter Thermostat Schedule Type Limits,  !- Name
    0,                       !- Lower Limit Value
    4,                       !- Upper Limit Value
    DISCRETE;                !- Numeric Type

  ScheduleTypeLimits,
    blocks-3645_office_4_South Perimeter Thermostat Schedule Type Limits,  !- Name
    0,                       !- Lower Limit Value
    4,                       !- Upper Limit Value
    DISCRETE;                !- Numeric Type

  ScheduleTypeLimits,
    blocks-3645_office_4_West Perimeter Thermostat Schedule Type Limits,  !- Name
    0,                       !- Lower Limit Value
    4,                       !- Upper Limit Value
    DISCRETE;                !- Numeric Type

  ScheduleTypeLimits,
    blocks-3645_office_5_Core Thermostat Schedule Type Limits,  !- Name
    0,                       !- Lower Limit Value
    4,                       !- Upper Limit Value
    DISCRETE;                !- Numeric Type

  ScheduleTypeLimits,
    blocks-3645_office_5_East Perimeter Thermostat Schedule Type Limits,  !- Name
    0,                       !- Lower Limit Value
    4,                       !- Upper Limit Value
    DISCRETE;                !- Numeric Type

  ScheduleTypeLimits,
    blocks-3645_office_5_North Perimeter Thermostat Schedule Type Limits,  !- Name
    0,                       !- Lower Limit Value
    4,                       !- Upper Limit Value
    DISCRETE;                !- Numeric Type

  ScheduleTypeLimits,
    blocks-3645_office_5_South Perimeter Thermostat Schedule Type Limits,  !- Name
    0,                       !- Lower Limit Value
    4,                       !- Upper Limit Value
    DISCRETE;                !- Numeric Type

  ScheduleTypeLimits,
    blocks-3645_office_5_West Perimeter Thermostat Schedule Type Limits,  !- Name
    0,                       !- Lower Limit Value
    4,                       !- Upper Limit Value
    DISCRETE;                !- Numeric Type

  ScheduleTypeLimits,
    blocks-3645_office_6_Core Thermostat Schedule Type Limits,  !- Name
    0,                       !- Lower Limit Value
    4,                       !- Upper Limit Value
    DISCRETE;                !- Numeric Type

  ScheduleTypeLimits,
    blocks-3645_office_6_East Perimeter Thermostat Schedule Type Limits,  !- Name
    0,                       !- Lower Limit Value
    4,                       !- Upper Limit Value
    DISCRETE;                !- Numeric Type

  ScheduleTypeLimits,
    blocks-3645_office_6_North Perimeter Thermostat Schedule Type Limits,  !- Name
    0,                       !- Lower Limit Value
    4,                       !- Upper Limit Value
    DISCRETE;                !- Numeric Type

  ScheduleTypeLimits,
    blocks-3645_office_6_South Perimeter Thermostat Schedule Type Limits,  !- Name
    0,                       !- Lower Limit Value
    4,                       !- Upper Limit Value
    DISCRETE;                !- Numeric Type

  ScheduleTypeLimits,
    blocks-3645_office_6_West Perimeter Thermostat Schedule Type Limits,  !- Name
    0,                       !- Lower Limit Value
    4,                       !- Upper Limit Value
    DISCRETE;                !- Numeric Type

  ScheduleTypeLimits,
    blocks-3645_office_7_Core Thermostat Schedule Type Limits,  !- Name
    0,                       !- Lower Limit Value
    4,                       !- Upper Limit Value
    DISCRETE;                !- Numeric Type

  ScheduleTypeLimits,
    blocks-3645_office_7_East Perimeter Thermostat Schedule Type Limits,  !- Name
    0,                       !- Lower Limit Value
    4,                       !- Upper Limit Value
    DISCRETE;                !- Numeric Type

  ScheduleTypeLimits,
    blocks-3645_office_7_North Perimeter Thermostat Schedule Type Limits,  !- Name
    0,                       !- Lower Limit Value
    4,                       !- Upper Limit Value
    DISCRETE;                !- Numeric Type

  ScheduleTypeLimits,
    blocks-3645_office_7_South Perimeter Thermostat Schedule Type Limits,  !- Name
    0,                       !- Lower Limit Value
    4,                       !- Upper Limit Value
    DISCRETE;                !- Numeric Type

  ScheduleTypeLimits,
    blocks-3645_office_7_West Perimeter Thermostat Schedule Type Limits,  !- Name
    0,                       !- Lower Limit Value
    4,                       !- Upper Limit Value
    DISCRETE;                !- Numeric Type

  ScheduleTypeLimits,
    blocks-3645_office_8_Core Thermostat Schedule Type Limits,  !- Name
    0,                       !- Lower Limit Value
    4,                       !- Upper Limit Value
    DISCRETE;                !- Numeric Type

  ScheduleTypeLimits,
    blocks-3645_office_8_East Perimeter Thermostat Schedule Type Limits,  !- Name
    0,                       !- Lower Limit Value
    4,                       !- Upper Limit Value
    DISCRETE;                !- Numeric Type

  ScheduleTypeLimits,
    blocks-3645_office_8_North Perimeter Thermostat Schedule Type Limits,  !- Name
    0,                       !- Lower Limit Value
    4,                       !- Upper Limit Value
    DISCRETE;                !- Numeric Type

  ScheduleTypeLimits,
    blocks-3645_office_8_South Perimeter Thermostat Schedule Type Limits,  !- Name
    0,                       !- Lower Limit Value
    4,                       !- Upper Limit Value
    DISCRETE;                !- Numeric Type

  ScheduleTypeLimits,
    blocks-3645_office_8_West Perimeter Thermostat Schedule Type Limits,  !- Name
    0,                       !- Lower Limit Value
    4,                       !- Upper Limit Value
    DISCRETE;                !- Numeric Type

  ScheduleTypeLimits,
    blocks-3645_office_9_Core Thermostat Schedule Type Limits,  !- Name
    0,                       !- Lower Limit Value
    4,                       !- Upper Limit Value
    DISCRETE;                !- Numeric Type

  ScheduleTypeLimits,
    blocks-3645_office_9_East Perimeter Thermostat Schedule Type Limits,  !- Name
    0,                       !- Lower Limit Value
    4,                       !- Upper Limit Value
    DISCRETE;                !- Numeric Type

  ScheduleTypeLimits,
    blocks-3645_office_9_North Perimeter Thermostat Schedule Type Limits,  !- Name
    0,                       !- Lower Limit Value
    4,                       !- Upper Limit Value
    DISCRETE;                !- Numeric Type

  ScheduleTypeLimits,
    blocks-3645_office_9_South Perimeter Thermostat Schedule Type Limits,  !- Name
    0,                       !- Lower Limit Value
    4,                       !- Upper Limit Value
    DISCRETE;                !- Numeric Type

  ScheduleTypeLimits,
    blocks-3645_office_9_West Perimeter Thermostat Schedule Type Limits,  !- Name
    0,                       !- Lower Limit Value
    4,                       !- Upper Limit Value
    DISCRETE;                !- Numeric Type

  ScheduleTypeLimits,
    ActivityLevel,           !- Name
    0,                       !- Lower Limit Value
    ,                        !- Upper Limit Value
    Continuous,              !- Numeric Type
    activitylevel;           !- Unit Type

  ScheduleTypeLimits,
    Dimensionless,           !- Name
    ,                        !- Lower Limit Value
    ,                        !- Upper Limit Value
    Continuous;              !- Numeric Type

  ScheduleTypeLimits,
    OnOff 1,                 !- Name
    0,                       !- Lower Limit Value
    1,                       !- Upper Limit Value
    Discrete,                !- Numeric Type
    availability;            !- Unit Type

!-   ===========  ALL OBJECTS IN CLASS: SCHEDULE:DAY:INTERVAL ===========

  Schedule:Day:Interval,
    Office_Lighting_Schedule_Week_Day,  !- Name
    Fractional,              !- Schedule Type Limits Name
    No,                      !- Interpolate to Timestep
    01:00,                   !- Time 1
    0.05,                    !- Value Until Time 1
    02:00,                   !- Time 2
    0.05,                    !- Value Until Time 2
    03:00,                   !- Time 3
    0.05,                    !- Value Until Time 3
    04:00,                   !- Time 4
    0.05,                    !- Value Until Time 4
    05:00,                   !- Time 5
    0.05,                    !- Value Until Time 5
    06:00,                   !- Time 6
    0.1,                     !- Value Until Time 6
    07:00,                   !- Time 7
    0.1,                     !- Value Until Time 7
    08:00,                   !- Time 8
    0.3,                     !- Value Until Time 8
    09:00,                   !- Time 9
    0.9,                     !- Value Until Time 9
    10:00,                   !- Time 10
    0.9,                     !- Value Until Time 10
    11:00,                   !- Time 11
    0.9,                     !- Value Until Time 11
    12:00,                   !- Time 12
    0.9,                     !- Value Until Time 12
    13:00,                   !- Time 13
    0.9,                     !- Value Until Time 13
    14:00,                   !- Time 14
    0.9,                     !- Value Until Time 14
    15:00,                   !- Time 15
    0.9,                     !- Value Until Time 15
    16:00,                   !- Time 16
    0.9,                     !- Value Until Time 16
    17:00,                   !- Time 17
    0.9,                     !- Value Until Time 17
    18:00,                   !- Time 18
    0.5,                     !- Value Until Time 18
    19:00,                   !- Time 19
    0.3,                     !- Value Until Time 19
    20:00,                   !- Time 20
    0.3,                     !- Value Until Time 20
    21:00,                   !- Time 21
    0.2,                     !- Value Until Time 21
    22:00,                   !- Time 22
    0.2,                     !- Value Until Time 22
    23:00,                   !- Time 23
    0.1,                     !- Value Until Time 23
    24:00,                   !- Time 24
    0.05;                    !- Value Until Time 24

  Schedule:Day:Interval,
    Office_Lighting_Schedule_Saturday,  !- Name
    Fractional,              !- Schedule Type Limits Name
    No,                      !- Interpolate to Timestep
    01:00,                   !- Time 1
    0.05,                    !- Value Until Time 1
    02:00,                   !- Time 2
    0.05,                    !- Value Until Time 2
    03:00,                   !- Time 3
    0.05,                    !- Value Until Time 3
    04:00,                   !- Time 4
    0.05,                    !- Value Until Time 4
    05:00,                   !- Time 5
    0.05,                    !- Value Until Time 5
    06:00,                   !- Time 6
    0.05,                    !- Value Until Time 6
    07:00,                   !- Time 7
    0.1,                     !- Value Until Time 7
    08:00,                   !- Time 8
    0.1,                     !- Value Until Time 8
    09:00,                   !- Time 9
    0.3,                     !- Value Until Time 9
    10:00,                   !- Time 10
    0.3,                     !- Value Until Time 10
    11:00,                   !- Time 11
    0.3,                     !- Value Until Time 11
    12:00,                   !- Time 12
    0.3,                     !- Value Until Time 12
    13:00,                   !- Time 13
    0.15,                    !- Value Until Time 13
    14:00,                   !- Time 14
    0.15,                    !- Value Until Time 14
    15:00,                   !- Time 15
    0.15,                    !- Value Until Time 15
    16:00,                   !- Time 16
    0.15,                    !- Value Until Time 16
    17:00,                   !- Time 17
    0.15,                    !- Value Until Time 17
    18:00,                   !- Time 18
    0.05,                    !- Value Until Time 18
    19:00,                   !- Time 19
    0.05,                    !- Value Until Time 19
    20:00,                   !- Time 20
    0.05,                    !- Value Until Time 20
    21:00,                   !- Time 21
    0.05,                    !- Value Until Time 21
    22:00,                   !- Time 22
    0.05,                    !- Value Until Time 22
    23:00,                   !- Time 23
    0.05,                    !- Value Until Time 23
    24:00,                   !- Time 24
    0.05;                    !- Value Until Time 24

  Schedule:Day:Interval,
    Office_Lighting_Schedule_Sunday,  !- Name
    Fractional,              !- Schedule Type Limits Name
    No,                      !- Interpolate to Timestep
    01:00,                   !- Time 1
    0.05,                    !- Value Until Time 1
    02:00,                   !- Time 2
    0.05,                    !- Value Until Time 2
    03:00,                   !- Time 3
    0.05,                    !- Value Until Time 3
    04:00,                   !- Time 4
    0.05,                    !- Value Until Time 4
    05:00,                   !- Time 5
    0.05,                    !- Value Until Time 5
    06:00,                   !- Time 6
    0.05,                    !- Value Until Time 6
    07:00,                   !- Time 7
    0.05,                    !- Value Until Time 7
    08:00,                   !- Time 8
    0.05,                    !- Value Until Time 8
    09:00,                   !- Time 9
    0.05,                    !- Value Until Time 9
    10:00,                   !- Time 10
    0.05,                    !- Value Until Time 10
    11:00,                   !- Time 11
    0.05,                    !- Value Until Time 11
    12:00,                   !- Time 12
    0.05,                    !- Value Until Time 12
    13:00,                   !- Time 13
    0.05,                    !- Value Until Time 13
    14:00,                   !- Time 14
    0.05,                    !- Value Until Time 14
    15:00,                   !- Time 15
    0.05,                    !- Value Until Time 15
    16:00,                   !- Time 16
    0.05,                    !- Value Until Time 16
    17:00,                   !- Time 17
    0.05,                    !- Value Until Time 17
    18:00,                   !- Time 18
    0.05,                    !- Value Until Time 18
    19:00,                   !- Time 19
    0.05,                    !- Value Until Time 19
    20:00,                   !- Time 20
    0.05,                    !- Value Until Time 20
    21:00,                   !- Time 21
    0.05,                    !- Value Until Time 21
    22:00,                   !- Time 22
    0.05,                    !- Value Until Time 22
    23:00,                   !- Time 23
    0.05,                    !- Value Until Time 23
    24:00,                   !- Time 24
    0.05;                    !- Value Until Time 24

  Schedule:Day:Interval,
    Office_Lighting_Schedule_Summer_Design_Day,  !- Name
    Fractional,              !- Schedule Type Limits Name
    No,                      !- Interpolate to Timestep
    01:00,                   !- Time 1
    1,                       !- Value Until Time 1
    02:00,                   !- Time 2
    1,                       !- Value Until Time 2
    03:00,                   !- Time 3
    1,                       !- Value Until Time 3
    04:00,                   !- Time 4
    1,                       !- Value Until Time 4
    05:00,                   !- Time 5
    1,                       !- Value Until Time 5
    06:00,                   !- Time 6
    1,                       !- Value Until Time 6
    07:00,                   !- Time 7
    1,                       !- Value Until Time 7
    08:00,                   !- Time 8
    1,                       !- Value Until Time 8