!-Generator IDFEditor 1.41
!-Option SortedOrder UseSpecialFormat
!-NOTE: All comments with '!-' are ignored by the IDFEditor and are generated automatically.
!-      Use '!' comments if they need to be retained when using the IDFEditor.
!-   ===========  ALL OBJECTS IN CLASS: VERSION ===========
! Approximation of the HVAC systems for the testing rooms:
!   * Single fan single duct constant air volume system.
!   * Variable chilled water flow rate with a lower limit to approximate the minimum cold air flow.
!   * Maximum supply air is higher than that of a single fan air volume in real case to better match measured cooling load.
!   * Fan efficiency and pressure rise are tuned to better match measured cooling load.
!   * Fan motor is assumed to be out of the supply air stream in order not to conteminate the cooling load with inaccurate fan motor heat gain.
!   * Added a chilled bypass to account for additional amount of chilled water designed to cool three rooms.
! Approximation of lighting:
!   * Visible absorptances of surfaces are tuned such that the workplane illuminance in the middle of room matches the measured illuminance.
! Infiltration:
!   * Infiltration air flow rate is guessed as a small value.

  Version,24.1;

!-   ===========  ALL OBJECTS IN CLASS: SIMULATIONCONTROL ===========

  SimulationControl,
    No,                      !- Do Zone Sizing Calculation
    No,                      !- Do System Sizing Calculation
    No,                      !- Do Plant Sizing Calculation
    No,                      !- Run Simulation for Sizing Periods
    Yes,                     !- Run Simulation for Weather File Run Periods
    No,                      !- Do HVAC Sizing Simulation for Sizing Periods
    1;                       !- Maximum Number of HVAC Sizing Simulation Passes

!-   ===========  ALL OBJECTS IN CLASS: BUILDING ===========

  Building,
    Building 71T Rm 102,     !- Name
    0,                       !- North Axis {deg}
    Suburbs,                 !- Terrain
    0.04,                    !- Loads Convergence Tolerance Value {W}
    0.4,                     !- Temperature Convergence Tolerance Value {deltaC}
    FullInteriorAndExteriorWithReflections,  !- Solar Distribution
    25,                      !- Maximum Number of Warmup Days
    6;                       !- Minimum Number of Warmup Days

!-   ===========  ALL OBJECTS IN CLASS: SHADOWCALCULATION ===========

  ShadowCalculation,
    PolygonClipping,         !- Shading Calculation Method
    Periodic,                !- Shading Calculation Update Frequency Method
    20,                      !- Shading Calculation Update Frequency
    50000;                   !- Maximum Figures in Shadow Overlap Calculations

!-   ===========  ALL OBJECTS IN CLASS: SURFACECONVECTIONALGORITHM:INSIDE ===========

  SurfaceConvectionAlgorithm:Inside,TARP;

!-   ===========  ALL OBJECTS IN CLASS: SURFACECONVECTIONALGORITHM:OUTSIDE ===========

  SurfaceConvectionAlgorithm:Outside,SimpleCombined;

!-   ===========  ALL OBJECTS IN CLASS: HEATBALANCEALGORITHM ===========

  HeatBalanceAlgorithm,ConductionTransferFunction;

!-   ===========  ALL OBJECTS IN CLASS: ZONECAPACITANCEMULTIPLIER:RESEARCHSPECIAL ===========

  ZoneCapacitanceMultiplier:ResearchSpecial,
    Multiplier,              !- Name
    ,                        !- Zone or ZoneList Name
    1,                       !- Temperature Capacity Multiplier
    1,                       !- Humidity Capacity Multiplier
    1,                       !- Carbon Dioxide Capacity Multiplier
    ;                        !- Generic Contaminant Capacity Multiplier

!-   ===========  ALL OBJECTS IN CLASS: TIMESTEP ===========

  Timestep,4;

!-   ===========  ALL OBJECTS IN CLASS: SITE:LOCATION ===========

  Site:Location,
    CHICAGO_IL_USA TMY2-94846,  !- Name
    41.78,                   !- Latitude {deg}
    -87.75,                  !- Longitude {deg}
    -6.00,                   !- Time Zone {hr}
    190.00;                  !- Elevation {m}

  RunPeriod,
    Run Period 1,            !- Name
    1,                       !- Begin Month
    1,                       !- Begin Day of Month
    ,                        !- Begin Year
    12,                      !- End Month
    31,                      !- End Day of Month
    ,                        !- End Year
    ,                        !- Day of Week for Start Day
    No,                      !- Use Weather File Holidays and Special Days
    No,                      !- Use Weather File Daylight Saving Period
    Yes,                     !- Apply Weekend Holiday Rule
    Yes,                     !- Use Weather File Rain Indicators
    Yes;                     !- Use Weather File Snow Indicators

! Chicago Ohare Intl Ap_IL_USA Annual Heating Design Conditions Wind Speed=4.9m/s Wind Dir=270
! Coldest Month=JAN
! Chicago Ohare Intl Ap_IL_USA Annual Heating 99.6%, MaxDB=-20°C

  SizingPeriod:DesignDay,
    Chicago Ohare Intl Ap Ann Htg 99.6% Condns DB,  !- Name
    1,                       !- Month
    21,                      !- Day of Month
    WinterDesignDay,         !- Day Type
    -20,                     !- Maximum Dry-Bulb Temperature {C}
    0.0,                     !- Daily Dry-Bulb Temperature Range {deltaC}
    DefaultMultipliers,      !- Dry-Bulb Temperature Range Modifier Type
    ,                        !- Dry-Bulb Temperature Range Modifier Day Schedule Name
    Wetbulb,                 !- Humidity Condition Type
    -20,                     !- Wetbulb or DewPoint at Maximum Dry-Bulb {C}
    ,                        !- Humidity Condition Day Schedule Name
    ,                        !- Humidity Ratio at Maximum Dry-Bulb {kgWater/kgDryAir}
    ,                        !- Enthalpy at Maximum Dry-Bulb {J/kg}
    ,                        !- Daily Wet-Bulb Temperature Range {deltaC}
    98934.,                  !- Barometric Pressure {Pa}
    4.9,                     !- Wind Speed {m/s}
    270,                     !- Wind Direction {deg}
    No,                      !- Rain Indicator
    No,                      !- Snow Indicator
    No,                      !- Daylight Saving Time Indicator
    ASHRAEClearSky,          !- Solar Model Indicator
    ,                        !- Beam Solar Day Schedule Name
    ,                        !- Diffuse Solar Day Schedule Name
    ,                        !- ASHRAE Clear Sky Optical Depth for Beam Irradiance (taub) {dimensionless}
    ,                        !- ASHRAE Clear Sky Optical Depth for Diffuse Irradiance (taud) {dimensionless}
    0.00;                    !- Sky Clearness

! Chicago Ohare Intl Ap Annual Cooling Design Conditions Wind Speed=5.2m/s Wind Dir=230
! Hottest Month=JUL
! Chicago Ohare Intl Ap_IL_USA Annual Cooling (DB=>MWB) .4%, MaxDB=33.3°C MWB=23.7°C

  SizingPeriod:DesignDay,
    Chicago Ohare Intl Ap Ann Clg .4% Condns DB=>MWB,  !- Name
    7,                       !- Month
    21,                      !- Day of Month
    SummerDesignDay,         !- Day Type
    33.3,                    !- Maximum Dry-Bulb Temperature {C}
    10.5,                    !- Daily Dry-Bulb Temperature Range {deltaC}
    DefaultMultipliers,      !- Dry-Bulb Temperature Range Modifier Type
    ,                        !- Dry-Bulb Temperature Range Modifier Day Schedule Name
    Wetbulb,                 !- Humidity Condition Type
    23.7,                    !- Wetbulb or DewPoint at Maximum Dry-Bulb {C}
    ,                        !- Humidity Condition Day Schedule Name
    ,                        !- Humidity Ratio at Maximum Dry-Bulb {kgWater/kgDryAir}
    ,                        !- Enthalpy at Maximum Dry-Bulb {J/kg}
    ,                        !- Daily Wet-Bulb Temperature Range {deltaC}
    98934.,                  !- Barometric Pressure {Pa}
    5.2,                     !- Wind Speed {m/s}
    230,                     !- Wind Direction {deg}
    No,                      !- Rain Indicator
    No,                      !- Snow Indicator
    No,                      !- Daylight Saving Time Indicator
    ASHRAETau,               !- Solar Model Indicator
    ,                        !- Beam Solar Day Schedule Name
    ,                        !- Diffuse Solar Day Schedule Name
    0.455,                   !- ASHRAE Clear Sky Optical Depth for Beam Irradiance (taub) {dimensionless}
    2.05;                    !- ASHRAE Clear Sky Optical Depth for Diffuse Irradiance (taud) {dimensionless}

  WindowsCalculationEngine,
    ExternalWindowsModel;    !- Windows engine

!-   ===========  ALL OBJECTS IN CLASS: RUNPERIODCONTROL:SPECIALDAYS ===========

  RunPeriodControl:SpecialDays,
    New Years Day,           !- Name
    1 January,               !- Start Date
    1,                       !- Duration {days}
    Holiday;                 !- Special Day Type

  RunPeriodControl:SpecialDays,
    Martin Luther King Day,  !- Name
    3rd Monday in January,   !- Start Date
    1,                       !- Duration {days}
    Holiday;                 !- Special Day Type

  RunPeriodControl:SpecialDays,
    Washington's Birthday,   !- Name
    3rd Monday in February,  !- Start Date
    1,                       !- Duration {days}
    Holiday;                 !- Special Day Type

  RunPeriodControl:SpecialDays,
    Memorial Day,            !- Name
    Last Monday in May,      !- Start Date
    1,                       !- Duration {days}
    Holiday;                 !- Special Day Type

  RunPeriodControl:SpecialDays,
    Independence Day,        !- Name
    4 July,                  !- Start Date
    1,                       !- Duration {days}
    Holiday;                 !- Special Day Type

  RunPeriodControl:SpecialDays,
    Labor Day,               !- Name
    1st Monday in September, !- Start Date
    1,                       !- Duration {days}
    Holiday;                 !- Special Day Type

  RunPeriodControl:SpecialDays,
    Veteran's Day,           !- Name
    11 November,             !- Start Date
    1,                       !- Duration {days}
    Holiday;                 !- Special Day Type

  RunPeriodControl:SpecialDays,
    Thanksgiving Day,        !- Name
    4th Thursday in November,!- Start Date
    1,                       !- Duration {days}
    Holiday;                 !- Special Day Type

  RunPeriodControl:SpecialDays,
    Christmas Day,           !- Name
    25 December,             !- Start Date
    1,                       !- Duration {days}
    Holiday;                 !- Special Day Type

  RunPeriodControl:SpecialDays,
    New Year's Eve,          !- Name
    31 December,             !- Start Date
    1,                       !- Duration {days}
    Holiday;                 !- Special Day Type

!-   ===========  ALL OBJECTS IN CLASS: MATERIAL ===========

  Material,
    MediumFurniture,         !- Name
    MediumSmooth,            !- Roughness
    0.57,                    !- Thickness {m}
    0.115,                   !- Conductivity {W/m-K}
    513,                     !- Density {kg/m3}
    1381,                    !- Specific Heat {J/kg-K}
    0.90,                    !- Thermal Absorptance
    0.7,                     !- Solar Absorptance
    0.75;                    !- Visible Absorptance

  Material,
    2x6 Wood Stud R19,       !- Name
    Rough,                   !- Roughness
    0.133,                   !- Thickness {m}
    0.047,                   !- Conductivity {W/m-K}
    93.84,                   !- Density {kg/m3}
    1006,                    !- Specific Heat {J/kg-K}
    0.9,                     !- Thermal Absorptance
    0.7,                     !- Solar Absorptance
    0.7;                     !- Visible Absorptance

  Material,
    Gypsum board - 5/8 in,   !- Name
    Smooth,                  !- Roughness
    0.015875,                !- Thickness {m}
    0.17,                    !- Conductivity {W/m-K}
    800,                     !- Density {kg/m3}
    1090,                    !- Specific Heat {J/kg-K}
    0.9,                     !- Thermal Absorptance
    0.7,                     !- Solar Absorptance
    0.3;                     !- Visible Absorptance

  Material,
    Plywood - 3/8 in,        !- Name
    Smooth,                  !- Roughness
    0.009525,                !- Thickness {m}
    0.12,                    !- Conductivity {W/m-K}
    540,                     !- Density {kg/m3}
    1210,                    !- Specific Heat {J/kg-K}
    ,                        !- Thermal Absorptance
    0.7;                     !- Solar Absorptance

  Material,
    Plywood - 3/4 in,        !- Name
    Smooth,                  !- Roughness
    0.01905,                 !- Thickness {m}
    0.12,                    !- Conductivity {W/m-K}
    540,                     !- Density {kg/m3}
    1210,                    !- Specific Heat {J/kg-K}
    ,                        !- Thermal Absorptance
    0.7;                     !- Solar Absorptance

  Material,
    Plywood - 1/2 in,        !- Name
    Smooth,                  !- Roughness
    0.0127,                  !- Thickness {m}
    0.12,                    !- Conductivity {W/m-K}
    540,                     !- Density {kg/m3}
    1210,                    !- Specific Heat {J/kg-K}
    ,                        !- Thermal Absorptance
    0.7;                     !- Solar Absorptance

  Material,
    Metal Siding,            !- Name
    MediumSmooth,            !- Roughness
    0.000701,                !- Thickness {m}
    45.345,                  !- Conductivity {W/m-K}
    7833.028,                !- Density {kg/m3}
    502.416,                 !- Specific Heat {J/kg-K}
    ,                        !- Thermal Absorptance
    0.7;                     !- Solar Absorptance

  Material,
    T&G - 3/4 in,            !- Name
    MediumSmooth,            !- Roughness
    0.01905,                 !- Thickness {m}
    0.15,                    !- Conductivity {W/m-K}
    608,                     !- Density {kg/m3}
    1630,                    !- Specific Heat {J/kg-K}
    ,                        !- Thermal Absorptance
    0.7;                     !- Solar Absorptance

!-   ===========  ALL OBJECTS IN CLASS: MATERIAL:NOMASS ===========

  Material:NoMass,
    Carpet w/rubber pad,     !- Name
    Rough,                   !- Roughness
    0.22,                    !- Thermal Resistance {m2-K/W}
    0.9,                     !- Thermal Absorptance
    0.85,                    !- Solar Absorptance
    0.85;                    !- Visible Absorptance

  Material:NoMass,
    R-30 Fiberglass Insulation,  !- Name
    Rough,                   !- Roughness
    5.28,                    !- Thermal Resistance {m2-K/W}
    0.9,                     !- Thermal Absorptance
    0.7,                     !- Solar Absorptance
    0.7;                     !- Visible Absorptance

!-   ===========  ALL OBJECTS IN CLASS: CONSTRUCTION ===========

  Construction,
    Room Ceiling,            !- Name
    Plywood - 3/8 in,        !- Outside Layer
    2x6 Wood Stud R19,       !- Layer 2
    Gypsum board - 5/8 in;   !- Layer 3

  Construction,
    Room Wall - East West,   !- Name
    2x6 Wood Stud R19,       !- Outside Layer
    Gypsum board - 5/8 in;   !- Layer 2

  Construction,
    Room Wall - North,       !- Name
    Gypsum board - 5/8 in,   !- Outside Layer
    Plywood - 3/8 in,        !- Layer 2
    2x6 Wood Stud R19,       !- Layer 3
    Gypsum board - 5/8 in;   !- Layer 4

  Construction,
    Room Wall - South,       !- Name
    Metal Siding,            !- Outside Layer
    Plywood - 1/2 in,        !- Layer 2
    2x6 Wood Stud R19;       !- Layer 3

  Construction,
    Room Floor,              !- Name
    R-30 Fiberglass Insulation,  !- Outside Layer
    T&G - 3/4 in,            !- Layer 2
    Plywood - 3/4 in,        !- Layer 3
    Carpet w/rubber pad;     !- Layer 4

!-   ===========  ALL OBJECTS IN CLASS: GLOBALGEOMETRYRULES ===========

  GlobalGeometryRules,
    UpperLeftCorner,         !- Starting Vertex Position
    Counterclockwise,        !- Vertex Entry Direction
    Relative,                !- Coordinate System
    Relative;                !- Daylighting Reference Point Coordinate System

!-   ===========  ALL OBJECTS IN CLASS: ZONE ===========

  Zone,
    Room 102,                !- Name
    180,                     !- Direction of Relative North {deg}
    0,                       !- X Origin {m}
    0,                       !- Y Origin {m}
    0,                       !- Z Origin {m}
    1,                       !- Type
    1,                       !- Multiplier
    3.352799892,             !- Ceiling Height {m}
    46.739768982;            !- Volume {m3}

!-   ===========  ALL OBJECTS IN CLASS: ZONECONTROL:THERMOSTAT ===========

  ZoneControl:Thermostat,
    Main Termostat,          !- Name
    Room 102,                !- Zone or ZoneList Name
    Zone Control Type Sched, !- Control Type Schedule Name
    ThermostatSetpoint:DualSetpoint,  !- Control 1 Object Type
    DualThermostat;          !- Control 1 Name

  Schedule:Compact,
    Zone Control Type Sched, !- Name
    Number,                  !- Schedule Type Limits Name
    Through: 12/31,          !- Field 1
    For: AllDays,            !- Field 2
    Until: 24:00,4;          !- Field 3

  Schedule:Compact,
    Setpoint cooling,        !- Name
    Number,                  !- Schedule Type Limits Name
    Through: 12/31,          !- Field 1
    For: AllDays,            !- Field 2
    Until: 07:00,27,         !- Field 3
    Until: 17:00,26,         !- Field 5
    Until: 24:00,27;         !- Field 7

  Schedule:Compact,
    Setpoint heating,        !- Name
    Number,                  !- Schedule Type Limits Name
    Through: 12/31,          !- Field 1
    For: Weekdays,           !- Field 2
    Until: 07:00,19,         !- Field 3
    Until: 17:00,21,         !- Field 5
    Until 24:00,19,          !- Field 7
    For: AllOtherDays,       !- Field 9
    Until: 24:00,19;         !- Field 10

  ScheduleTypeLimits,
    Number;                  !- Name

!-   ===========  ALL OBJECTS IN CLASS: THERMOSTATSETPOINT:DUALSETPOINT ===========

  ThermostatSetpoint:DualSetpoint,
    DualThermostat,          !- Name
    Setpoint heating,        !- Heating Setpoint Temperature Schedule Name
    Setpoint cooling;        !- Cooling Setpoint Temperature Schedule Name

!-   ===========  ALL OBJECTS IN CLASS: ZONEHVAC:IDEALLOADSAIRSYSTEM ===========

  ZoneHVAC:IdealLoadsAirSystem,
    Room 102 Ideal Loads,    !- Name
    ,                        !- Availability Schedule Name
    Room 102 INLETS,         !- Zone Supply Air Node Name
    ,                        !- Zone Exhaust Air Node Name
    ,                        !- System Inlet Air Node Name
    26,                      !- Maximum Heating Supply Air Temperature {C}
    15,                      !- Minimum Cooling Supply Air Temperature {C}
    0.01,                    !- Maximum Heating Supply Air Humidity Ratio {kgWater/kgDryAir}
    0.0156,                  !- Minimum Cooling Supply Air Humidity Ratio {kgWater/kgDryAir}
    NoLimit,                 !- Heating Limit
    autosize,                !- Maximum Heating Air Flow Rate {m3/s}
    ,                        !- Maximum Sensible Heating Capacity {W}
    NoLimit,                 !- Cooling Limit
    ,                        !- Maximum Cooling Air Flow Rate {m3/s}
    ,                        !- Maximum Total Cooling Capacity {W}
    ,                        !- Heating Availability Schedule Name
    ,                        !- Cooling Availability Schedule Name
    ,                        !- Dehumidification Control Type
    ,                        !- Cooling Sensible Heat Ratio {dimensionless}
    ,                        !- Humidification Control Type
    ,                        !- Design Specification Outdoor Air Object Name
    ,                        !- Outdoor Air Inlet Node Name
    ,                        !- Demand Controlled Ventilation Type
    ,                        !- Outdoor Air Economizer Type
    ,                        !- Heat Recovery Type
    ,                        !- Sensible Heat Recovery Effectiveness {dimensionless}
    ;                        !- Latent Heat Recovery Effectiveness {dimensionless}

!-   ===========  ALL OBJECTS IN CLASS: ZONEHVAC:EQUIPMENTLIST ===========

  ZoneHVAC:EquipmentList,
    Room 102 EQUIPMENT,      !- Name
    SequentialLoad,          !- Load Distribution Scheme
    ZoneHVAC:IdealLoadsAirSystem,  !- Zone Equipment 1 Object Type
    Room 102 Ideal Loads,    !- Zone Equipment 1 Name
    1,                       !- Zone Equipment 1 Cooling Sequence
    1,                       !- Zone Equipment 1 Heating or No-Load Sequence
    ,                        !- Zone Equipment 1 Sequential Cooling Fraction Schedule Name
    ;                        !- Zone Equipment 1 Sequential Heating Fraction Schedule Name

!-   ===========  ALL OBJECTS IN CLASS: ZONEHVAC:EQUIPMENTCONNECTIONS ===========

  ZoneHVAC:EquipmentConnections,
    Room 102,                !- Zone Name
    Room 102 EQUIPMENT,      !- Zone Conditioning Equipment List Name
    Room 102 INLETS,         !- Zone Air Inlet Node or NodeList Name
    ,                        !- Zone Air Exhaust Node or NodeList Name
    Room 102 NODE,           !- Zone Air Node Name
    Room 102 OUTLET;         !- Zone Return Air Node or NodeList Name

!-   ===========  ALL OBJECTS IN CLASS: NODELIST ===========

  NodeList,
    Room 102 INLETS,         !- Name
    Room 102 INLET;          !- Node 1 Name

!-   ===========  ALL OBJECTS IN CLASS: BUILDINGSURFACE:DETAILED ===========

  BuildingSurface:Detailed,
    Room102 South Wall,      !- Name
    WALL,                    !- Surface Type
    Room Wall - South,       !- Construction Name
    Room 102,                !- Zone Name
    ,                        !- Space Name
    Outdoors,                !- Outside Boundary Condition
    ,                        !- Outside Boundary Condition Object
    SunExposed,              !- Sun Exposure
    WindExposed,             !- Wind Exposure
    0.5,                     !- View Factor to Ground
    4,                       !- Number of Vertices
    3.048000000000,4.572000000000,3.352800000000,  !- X,Y,Z ==> Vertex 1 {m}
    3.048000000000,4.572000000000,0.000000000000,  !- X,Y,Z ==> Vertex 2 {m}
    0.000000000000,4.572000000000,0.000000000000,  !- X,Y,Z ==> Vertex 3 {m}
    0.000000000000,4.572000000000,3.352800000000;  !- X,Y,Z ==> Vertex 4 {m}

  BuildingSurface:Detailed,
    Room102 Floor,           !- Name
    FLOOR,                   !- Surface Type
    Room Floor,              !- Construction Name
    Room 102,                !- Zone Name
    ,                        !- Space Name
    Outdoors,                !- Outside Boundary Condition
    ,                        !- Outside Boundary Condition Object
    NoSun,                   !- Sun Exposure
    NoWind,                  !- Wind Exposure
    1,                       !- View Factor to Ground
    4,                       !- Number of Vertices
    0.000000000000,0.000000000000,0.000000000000,  !- X,Y,Z ==> Vertex 1 {m}
    0.000000000000,4.572000000000,0.000000000000,  !- X,Y,Z ==> Vertex 2 {m}
    3.048000000000,4.572000000000,0.000000000000,  !- X,Y,Z ==> Vertex 3 {m}
    3.048000000000,0.000000000000,0.000000000000;  !- X,Y,Z ==> Vertex 4 {m}

  BuildingSurface:Detailed,
    Room102 West Wall,       !- Name
    WALL,                    !- Surface Type
    Room Wall - East West,   !- Construction Name
    Room 102,                !- Zone Name
    ,                        !- Space Name
    Surface,                 !- Outside Boundary Condition
    Room102 West Wall,       !- Outside Boundary Condition Object
    NoSun,                   !- Sun Exposure
    NoWind,                  !- Wind Exposure
    0,                       !- View Factor to Ground
    4,                       !- Number of Vertices
    3.048000000000,0.000000000000,3.352800000000,  !- X,Y,Z ==> Vertex 1 {m}
    3.048000000000,0.000000000000,0.000000000000,  !- X,Y,Z ==> Vertex 2 {m}
    3.048000000000,4.572000000000,0.000000000000,  !- X,Y,Z ==> Vertex 3 {m}
    3.048000000000,4.572000000000,3.352800000000;  !- X,Y,Z ==> Vertex 4 {m}

  BuildingSurface:Detailed,
    Room102 North Wall,      !- Name
    WALL,                    !- Surface Type
    Room Wall - North,       !- Construction Name
    Room 102,                !- Zone Name
    ,                        !- Space Name
    Surface,                 !- Outside Boundary Condition
    Room102 North Wall,      !- Outside Boundary Condition Object
    NoSun,                   !- Sun Exposure
    NoWind,                  !- Wind Exposure
    0,                       !- View Factor to Ground
    4,                       !- Number of Vertices
    0.000000000000,0.000000000000,3.352800000000,  !- X,Y,Z ==> Vertex 1 {m}
    0.000000000000,0.000000000000,0.000000000000,  !- X,Y,Z ==> Vertex 2 {m}
    3.048000000000,0.000000000000,0.000000000000,  !- X,Y,Z ==> Vertex 3 {m}
    3.048000000000,0.000000000000,3.352800000000;  !- X,Y,Z ==> Vertex 4 {m}

  BuildingSurface:Detailed,
    Room102 East Wall,       !- Name
    WALL,                    !- Surface Type
    Room Wall - East West,   !- Construction Name
    Room 102,                !- Zone Name
    ,                        !- Space Name
    Surface,                 !- Outside Boundary Condition
    Room102 East Wall,       !- Outside Boundary Condition Object
    NoSun,                   !- Sun Exposure
    NoWind,                  !- Wind Exposure
    0,                       !- View Factor to Ground
    4,                       !- Number of Vertices
    0.000000000000,4.572000000000,3.352800000000,  !- X,Y,Z ==> Vertex 1 {m}
    0.000000000000,4.572000000000,0.000000000000,  !- X,Y,Z ==> Vertex 2 {m}
    0.000000000000,0.000000000000,0.000000000000,  !- X,Y,Z ==> Vertex 3 {m}
    0.000000000000,0.000000000000,3.352800000000;  !- X,Y,Z ==> Vertex 4 {m}

  BuildingSurface:Detailed,
    Room102 Ceiling,         !- Name
    CEILING,                 !- Surface Type
    Room Ceiling,            !- Construction Name
    Room 102,                !- Zone Name
    ,                        !- Space Name
    Surface,                 !- Outside Boundary Condition
    Room102 Ceiling,         !- Outside Boundary Condition Object
    NoSun,                   !- Sun Exposure
    NoWind,                  !- Wind Exposure
    0,                       !- View Factor to Ground
    4,                       !- Number of Vertices
    3.048000000000,0.000000000000,3.352800000000,  !- X,Y,Z ==> Vertex 1 {m}
    3.048000000000,4.572000000000,3.352800000000,  !- X,Y,Z ==> Vertex 2 {m}
    0.000000000000,4.572000000000,3.352800000000,  !- X,Y,Z ==> Vertex 3 {m}
    0.000000000000,0.000000000000,3.352800000000;  !- X,Y,Z ==> Vertex 4 {m}

  FenestrationSurface:Detailed,
    Room 102 Window,         !- Name
    Window,                  !- Surface Type
    CFS_Glz_2,               !- Construction Name
    Room102 South Wall,      !- Building Surface Name
    ,                        !- Outside Boundary Condition Object
    0.5,                     !- View Factor to Ground
    ,                        !- Frame and Divider Name
    1,                       !- Multiplier
    4,                       !- Number of Vertices
    2.880518750000,4.572000000000,3.260725000000,  !- X,Y,Z ==> Vertex 1 {m}
    2.880518750000,4.572000000000,0.231775000000,  !- X,Y,Z ==> Vertex 2 {m}
    0.167481250000,4.572000000000,0.231775000000,  !- X,Y,Z ==> Vertex 3 {m}
    0.167481250000,4.572000000000,3.260725000000;  !- X,Y,Z ==> Vertex 4 {m}

  Output:Variable,*,Zone Mean Air Temperature,Timestep;

  Output:Variable,Room 102 Window,Surface Inside Face Temperature,Timestep;

  Output:Variable,Room 102 Window,Surface Outside Face Temperature,Timestep;

  Output:Variable,Room 102 Window,Surface Window Total Absorbed Shortwave Radiation Rate Layer 1,Timestep;

  Output:Variable,Room 102 Window,Surface Window Gap Convective Heat Transfer Rate,Timestep;

  Output:Variable,Room 102 Window,Surface Window Net Heat Transfer Rate,Timestep;

  Output:Variable,Room 102 Window,Surface Inside Face Net Surface Thermal Radiation Heat Gain Rate,Timestep;

  Output:Variable,Room 102 Window,Surface Inside Face Convection Heat Gain Rate,Timestep;

  Output:Variable,Room 102 Window,Surface Window Inside Face Shade Zone Convection Heat Gain Rate,Timestep;

  Output:Variable,Room 102 Window,Surface Inside Face Convection Heat Transfer Coefficient,Timestep;

  Output:Variable,*,Zone Windows Total Transmitted Solar Radiation Rate,Timestep;

  Output:Variable,Room 102 Window,Surface Window Heat Gain Rate,Timestep;

  Output:Variable,Room 102 Window,Surface Window Heat Loss Rate,Timestep;

  Output:Variable,*,Zone Ideal Loads Zone Total Cooling Rate,Timestep;

  Output:Variable,*,Zone Ideal Loads Zone Total Heating Rate,Timestep;

  Output:Variable,*,Surface Window Shortwave from Zone Back Out Window Heat Transfer Rate,Timestep;

  Output:Variable,*,Surface Window Inside Face Gap between Shade and Glazing Zone Convection Heat Gain Rate,Timestep;

  Output:Variable,*,Surface Window Inside Face Shade Zone Convection Heat Gain Rate,Timestep;

  Output:Variable,*,Surface Window Inside Face Shade Net Infrared Heat Transfer Rate,Timestep;

  Output:Variable,*,Surface Window Inside Face Glazing Zone Convection Heat Gain Rate,Timestep;

  Output:Variable,*,Surface Window Inside Face Glazing Net Infrared Heat Transfer Rate,Timestep;

  Output:Variable,Room 102 Window,Surface Outside Face Incident Sky Diffuse Solar Radiation Rate per Area,Timestep;

  Output:Variable,Room 102 Window,Surface Outside Face Incident Ground Diffuse Solar Radiation Rate per Area,Timestep;

  Output:Variable,Room 102 Window,Surface Outside Face Incident Beam Solar Radiation Rate per Area,Timestep;

  Output:Variable,Room 102 Window,Surface Outside Face Beam Solar Incident Angle Cosine Value,Timestep;
