!-Generator IDFEditor 1.34
!-Option OriginalOrderTop UseSpecialFormat
!-NOTE: All comments with '!-' are ignored by the IDFEditor and are generated automatically.
!-      Use '!' comments if they need to be retained when using the IDFEditor.
! WindowTests.idf
! Basic file description:  Window test for EnergyPlus.
!
! Highlights:              The following window types are modeled:
!                          Double pane (no shading device), double pane with interior screen,
!                          double pane with drapes, double pane with interior roll shade,
!                          coated double pane (no shading device), "shading coefficient" double pane (no shading device),
!                          double pane switchable glazing with illuminance setpoint control,
!                          double pane with solar / luminance setpoint control,
!                          triple pane (no shading device), and quadruple pane (no shading device).
!                          All shades are assumed to be perfect diffusers, i.e,
!                          their optical properties, such as transmittance, do not depend on direction
!                          of incident solar radiation. Screen solar beam properties depend on sun angle.
!                          Screen solar diffuse properties do not depend on sun angle and are calculated
!                          by integrating the solar beam properties over a quarter hemisphere.
!                          All shades are movable and controlled by incident solar radiation.
!                          The screen is movable and controlled by a schedule.
!
! Simulation Location/Run: DENVER_STAPLETON_CO_USA_WMO_724690, 2 design days, 1 run period,
!                          note that winter design day has no solar radiation (clearness = 0)
!                          and summer design day has almost maximal solar (clearness = 1.05).
!
! Location:                Denver, CO
!
! Design Days:             DENVER_STAPLETON_CO_USA Annual Heating 99%, MaxDB=-16°C
!                          DENVER_STAPLETON_CO_USA Annual Cooling (DB=>MWB) 1%, MaxDB=32.6°C MWB=15.5°C (modified 1.05 clearness)
!
! Run Period (Weather File): DENVER_STAPLETON_CO_USA_WMO_724690, January (full month) and July (full month)
!
! Run Control:             No zone or system sizing, design day run control (no weather file simulation)
!
! Building: Fictional 9-zone building with different window configurations.
!   Zones are unconnnected, i.e., no interzone surfaces.
!   Zone 1,2,6,7,8 and 9 have unshaded windows with different number of panes
!   Zone 3 has double-pane windows with interior screen.
!   Zone 4 has double-pane windows with interior drapes.
!   Zone 5 has double-pane windows with interior roll shades.
!   Zone 10 has double-pane windows with switchable glazing and illuminance control.
!   Zone 10 has double pane windows with solar / luminance control.
!
!
! Floor Area:        900 m2
! Number of Stories: 1
!
! Zone Description Details:
!
!                                                        *******************
!                                                        *                 *
!                                                        *                 *
!                                                   ******************     *
!                                                   *    *           *     *
!                                                   *    *           *     *
!                                              ******************    *     *
!                                              *    *    *      *    *     *
!                                              *    *    *      *    *     *
!                                         ******************    *    *     *
!                                         *    *    *    *******************
!                                         *    *    *      *    *    *
!                                   *******************    *    *    *
!                                   *     *    *    ******************
!                                   *     *    *      *    *    *
!                              ******************     *    *    *
!                              *    *     *    ******************
!                              *    *     *     *     *    *
!                              *    *     *     *     *    *
!                         ******************    *     *    *
!                         *    *    *     ******************
!                         *    *    *      *    *     *
!                    ******************    *    *     *
!                    *    *    *    *******************
!                    *    *    *      *    *    *
!               ******************    *    *    *
!               *    *    *    ******************
!               *    *    *      *    *    *
!               *    *    *      *    *    *
!               *    *    ******************
!               *    *           *    *
!               *    *           *    *
!               *    ******************
!               *                *
!               *                *
!               ******************
!
! Internal gains description:     NA
!
! Interzone Surfaces:             None
! Internal Mass:                  None
! People:                         None
! Lights:                         In zones DPW and DPSG just to avoid daylighting warnings.
! Equipment:                      None
! Windows:                        0
! Detached Shading:               None
! Daylight:                       None
! Natural Ventilation:            None
! Compact Schedules:              Exterior window screen uses a schedule as an example
! Solar Distribution:             MinimalShadowing (due to overlapping zones)
!
! HVAC:                           NA
!
! Zonal Equipment:                NA
! Central Air Handling Equipment: No
! System Equipment Autosize:      No
! Purchased Cooling:              No
! Purchased Heating:              No
! Purchased Chilled Water:        No
! Purchased Hot Water:            No
! Coils:                          None
! Pumps:                          None
! Boilers:                        None
! Chillers:                       None
! Towers:                         None
!
! Results:
! Standard Reports:               Variable Dictionary, Surfaces (dxf), Meter File
! Timestep or Hourly Variables:   Hourly and Daily
! Time bins Report:               None
! HTML Report:                    None
! Environmental Emissions:        None
! Utility Tariffs:                None

  Version,24.1;

  Timestep,4;

  Building,
    SIMPLE ZONES: VARYING WINDOWS,  !- Name
    0,                       !- North Axis {deg}
    Suburbs,                 !- Terrain
    3.9999999E-02,           !- Loads Convergence Tolerance Value {W}
    0.4000000,               !- Temperature Convergence Tolerance Value {deltaC}
    MinimalShadowing,        !- Solar Distribution
    25,                      !- Maximum Number of Warmup Days
    6;                       !- Minimum Number of Warmup Days

  HeatBalanceAlgorithm,ConductionTransferFunction;

  SurfaceConvectionAlgorithm:Inside,TARP;

  SurfaceConvectionAlgorithm:Outside,DOE-2;

  SimulationControl,
    No,                      !- Do Zone Sizing Calculation
    No,                      !- Do System Sizing Calculation
    No,                      !- Do Plant Sizing Calculation
    Yes,                     !- Run Simulation for Sizing Periods
    Yes,                     !- Run Simulation for Weather File Run Periods
    No,                      !- Do HVAC Sizing Simulation for Sizing Periods
    1;                       !- Maximum Number of HVAC Sizing Simulation Passes

  RunPeriod,
    Run Period 1,            !- Name
    1,                       !- Begin Month
    1,                       !- Begin Day of Month
    ,                        !- Begin Year
    1,                       !- End Month
    31,                      !- End Day of Month
    ,                        !- End Year
    Tuesday,                 !- Day of Week for Start Day
    Yes,                     !- Use Weather File Holidays and Special Days
    Yes,                     !- Use Weather File Daylight Saving Period
    No,                      !- Apply Weekend Holiday Rule
    Yes,                     !- Use Weather File Rain Indicators
    Yes;                     !- Use Weather File Snow Indicators

  RunPeriod,
    Run Period 2,            !- Name
    7,                       !- Begin Month
    1,                       !- Begin Day of Month
    ,                        !- Begin Year
    7,                       !- End Month
    31,                      !- End Day of Month
    ,                        !- End Year
    Tuesday,                 !- Day of Week for Start Day
    Yes,                     !- Use Weather File Holidays and Special Days
    Yes,                     !- Use Weather File Daylight Saving Period
    No,                      !- Apply Weekend Holiday Rule
    Yes,                     !- Use Weather File Rain Indicators
    Yes;                     !- Use Weather File Snow Indicators

  Site:Location,
    Denver Centennial CO USA WMO=724666,  !- Name
    39.74,                   !- Latitude {deg}
    -105.18,                 !- Longitude {deg}
    -7.00,                   !- Time Zone {hr}
    1793.00;                 !- Elevation {m}

 !  WMO=724666 Time Zone=NAM        (GMT-07:00) Mountain Time (US & Canada)
 !  Data Source=ASHRAE 2009 Annual Design Conditions
 ! Using Design Conditions from "Climate Design Data 2009 ASHRAE Handbook"
 ! Denver Centennial CO USA Extreme Annual Wind Speeds, 1%=11.1m/s, 2.5%=9.5m/s, 5%=8.4m/s
 ! Denver Centennial CO USA Extreme Annual Temperatures, Max Drybulb=-22.9°C Min Drybulb=36.1°C
 ! Denver Centennial CO USA Annual Heating Design Conditions Wind Speed=3m/s Wind Dir=340
 ! Coldest Month=December
 ! Denver Centennial CO USA Annual Heating 99.6%, MaxDB=-18.8°C

  SizingPeriod:DesignDay,
    Denver Centennial Ann Htg 99.6% Condns DB,  !- Name
    12,                      !- Month
    21,                      !- Day of Month
    WinterDesignDay,         !- Day Type
    -18.8,                   !- Maximum Dry-Bulb Temperature {C}
    0.0,                     !- Daily Dry-Bulb Temperature Range {deltaC}
    ,                        !- Dry-Bulb Temperature Range Modifier Type
    ,                        !- Dry-Bulb Temperature Range Modifier Day Schedule Name
    Wetbulb,                 !- Humidity Condition Type
    -18.8,                   !- Wetbulb or DewPoint at Maximum Dry-Bulb {C}
    ,                        !- Humidity Condition Day Schedule Name
    ,                        !- Humidity Ratio at Maximum Dry-Bulb {kgWater/kgDryAir}
    ,                        !- Enthalpy at Maximum Dry-Bulb {J/kg}
    ,                        !- Daily Wet-Bulb Temperature Range {deltaC}
    81560.,                  !- Barometric Pressure {Pa}
    3,                       !- Wind Speed {m/s}
    340,                     !- Wind Direction {deg}
    No,                      !- Rain Indicator
    No,                      !- Snow Indicator
    No,                      !- Daylight Saving Time Indicator
    ASHRAEClearSky,          !- Solar Model Indicator
    ,                        !- Beam Solar Day Schedule Name
    ,                        !- Diffuse Solar Day Schedule Name
    ,                        !- ASHRAE Clear Sky Optical Depth for Beam Irradiance (taub) {dimensionless}
    ,                        !- ASHRAE Clear Sky Optical Depth for Diffuse Irradiance (taud) {dimensionless}
    0.00;                    !- Sky Clearness

 ! Denver Centennial Annual Cooling Design Conditions Wind Speed=4.9m/s Wind Dir=0
 ! Hottest Month=July
 ! Denver Centennial CO USA Annual Cooling (DB=>MWB) 1%, MaxDB=32°C MWB=15.5°C

  SizingPeriod:DesignDay,
    Denver Centennial Ann Clg 1% Condns DB=>MWB,  !- Name
    7,                       !- Month
    21,                      !- Day of Month
    SummerDesignDay,         !- Day Type
    32,                      !- Maximum Dry-Bulb Temperature {C}
    15.2,                    !- Daily Dry-Bulb Temperature Range {deltaC}
    ,                        !- Dry-Bulb Temperature Range Modifier Type
    ,                        !- Dry-Bulb Temperature Range Modifier Day Schedule Name
    Wetbulb,                 !- Humidity Condition Type
    15.5,                    !- Wetbulb or DewPoint at Maximum Dry-Bulb {C}
    ,                        !- Humidity Condition Day Schedule Name
    ,                        !- Humidity Ratio at Maximum Dry-Bulb {kgWater/kgDryAir}
    ,                        !- Enthalpy at Maximum Dry-Bulb {J/kg}
    ,                        !- Daily Wet-Bulb Temperature Range {deltaC}
    81560.,                  !- Barometric Pressure {Pa}
    4.9,                     !- Wind Speed {m/s}
    0,                       !- Wind Direction {deg}
    No,                      !- Rain Indicator
    No,                      !- Snow Indicator
    No,                      !- Daylight Saving Time Indicator
    ASHRAEClearSky,          !- Solar Model Indicator
    ,                        !- Beam Solar Day Schedule Name
    ,                        !- Diffuse Solar Day Schedule Name
    ,                        !- ASHRAE Clear Sky Optical Depth for Beam Irradiance (taub) {dimensionless}
    ,                        !- ASHRAE Clear Sky Optical Depth for Diffuse Irradiance (taud) {dimensionless}
    1.00;                    !- Sky Clearness

  Material,
    A2 - 4 IN DENSE FACE BRICK,  !- Name
    Rough,                   !- Roughness
    0.1014984,               !- Thickness {m}
    1.245296,                !- Conductivity {W/m-K}
    2082.400,                !- Density {kg/m3}
    920.4800,                !- Specific Heat {J/kg-K}
    0.9000000,               !- Thermal Absorptance
    0.9300000,               !- Solar Absorptance
    0.9300000;               !- Visible Absorptance

  Material,
    B3 - 2 IN INSULATION,    !- Name
    VeryRough,               !- Roughness
    5.0901599E-02,           !- Thickness {m}
    4.3239430E-02,           !- Conductivity {W/m-K}
    32.03693,                !- Density {kg/m3}
    836.8000,                !- Specific Heat {J/kg-K}
    0.9000000,               !- Thermal Absorptance
    0.5000000,               !- Solar Absorptance
    0.5000000;               !- Visible Absorptance

  Material,
    C2 - 4 IN LW CONCRETE BLOCK,  !- Name
    MediumRough,             !- Roughness
    0.1014984,               !- Thickness {m}
    0.3805070,               !- Conductivity {W/m-K}
    608.7016,                !- Density {kg/m3}
    836.8000,                !- Specific Heat {J/kg-K}
    0.9000000,               !- Thermal Absorptance
    0.6500000,               !- Solar Absorptance
    0.6500000;               !- Visible Absorptance

  Material,
    E1 - 3 / 4 IN PLASTER OR GYP BOARD,  !- Name
    Smooth,                  !- Roughness
    1.9050000E-02,           !- Thickness {m}
    0.7264224,               !- Conductivity {W/m-K}
    1601.846,                !- Density {kg/m3}
    836.8000,                !- Specific Heat {J/kg-K}
    0.9000000,               !- Thermal Absorptance
    0.9200000,               !- Solar Absorptance
    0.9200000;               !- Visible Absorptance

  WindowMaterial:Glazing,
    GLASS - CLEAR PLATE 1 / 4 IN,  !- Name
    SpectralAverage,         !- Optical Data Type
    ,                        !- Window Glass Spectral Data Set Name
    6.0000001E-03,           !- Thickness {m}
    0.7750000,               !- Solar Transmittance at Normal Incidence
    7.1000002E-02,           !- Front Side Solar Reflectance at Normal Incidence
    7.1000002E-02,           !- Back Side Solar Reflectance at Normal Incidence
    0.8810000,               !- Visible Transmittance at Normal Incidence
    7.9999998E-02,           !- Front Side Visible Reflectance at Normal Incidence
    7.9999998E-02,           !- Back Side Visible Reflectance at Normal Incidence
    0,                       !- Infrared Transmittance at Normal Incidence
    0.8400000,               !- Front Side Infrared Hemispherical Emissivity
    0.8400000,               !- Back Side Infrared Hemispherical Emissivity
    0.9000000;               !- Conductivity {W/m-K}

  Material,
    E5 - ACOUSTIC TILE,      !- Name
    MediumSmooth,            !- Roughness
    1.9050000E-02,           !- Thickness {m}
    6.0535200E-02,           !- Conductivity {W/m-K}
    480.5539,                !- Density {kg/m3}
    836.8000,                !- Specific Heat {J/kg-K}
    0.9000000,               !- Thermal Absorptance
    0.3200000,               !- Solar Absorptance
    0.3200000;               !- Visible Absorptance

  Material:AirGap,
    E4 - CEILING AIRSPACE,   !- Name
    0.1762280;               !- Thermal Resistance {m2-K/W}

  Material,
    C12 - 2 IN HW CONCRETE,  !- Name
    MediumRough,             !- Roughness
    5.0901599E-02,           !- Thickness {m}
    1.729577,                !- Conductivity {W/m-K}
    2242.585,                !- Density {kg/m3}
    836.8000,                !- Specific Heat {J/kg-K}
    0.9000000,               !- Thermal Absorptance
    0.6500000,               !- Solar Absorptance
    0.6500000;               !- Visible Absorptance

  Material,
    E2 - 1 / 2 IN SLAG OR STONE,  !- Name
    Rough,                   !- Roughness
    1.2710161E-02,           !- Thickness {m}
    1.435549,                !- Conductivity {W/m-K}
    881.0155,                !- Density {kg/m3}
    1673.600,                !- Specific Heat {J/kg-K}
    0.9000000,               !- Thermal Absorptance
    0.5500000,               !- Solar Absorptance
    0.5500000;               !- Visible Absorptance

  Material,
    E3 - 3 / 8 IN FELT AND MEMBRANE,  !- Name
    Rough,                   !- Roughness
    9.5402403E-03,           !- Thickness {m}
    0.1902535,               !- Conductivity {W/m-K}
    1121.292,                !- Density {kg/m3}
    1673.600,                !- Specific Heat {J/kg-K}
    0.9000000,               !- Thermal Absorptance
    0.7500000,               !- Solar Absorptance
    0.7500000;               !- Visible Absorptance

  Material,
    B6 - 2 IN DENSE INSULATION,  !- Name
    VeryRough,               !- Roughness
    5.0901599E-02,           !- Thickness {m}
    4.3239430E-02,           !- Conductivity {W/m-K}
    91.30524,                !- Density {kg/m3}
    836.8000,                !- Specific Heat {J/kg-K}
    0.9000000,               !- Thermal Absorptance
    0.5000000,               !- Solar Absorptance
    0.5000000;               !- Visible Absorptance

  WindowMaterial:Glazing,
    GLASS - CLEAR SHEET 1 / 8 IN,  !- Name
    SpectralAverage,         !- Optical Data Type
    ,                        !- Window Glass Spectral Data Set Name
    3.0000000E-03,           !- Thickness {m}
    0.8370000,               !- Solar Transmittance at Normal Incidence
    7.5000003E-02,           !- Front Side Solar Reflectance at Normal Incidence
    7.5000003E-02,           !- Back Side Solar Reflectance at Normal Incidence
    0.8980000,               !- Visible Transmittance at Normal Incidence
    8.1000000E-02,           !- Front Side Visible Reflectance at Normal Incidence
    8.1000000E-02,           !- Back Side Visible Reflectance at Normal Incidence
    0,                       !- Infrared Transmittance at Normal Incidence
    0.8400000,               !- Front Side Infrared Hemispherical Emissivity
    0.8400000,               !- Back Side Infrared Hemispherical Emissivity
    0.9000000;               !- Conductivity {W/m-K}

  WindowMaterial:Glazing,
    ELECTRO GLASS DARK 1 / 8 IN,  !- Name
    SpectralAverage,         !- Optical Data Type
    ,                        !- Window Glass Spectral Data Set Name
    3.0000000E-03,           !- Thickness {m}
    0.111,                   !- Solar Transmittance at Normal Incidence
    0.179,                   !- Front Side Solar Reflectance at Normal Incidence
    0.179,                   !- Back Side Solar Reflectance at Normal Incidence
    0.128,                   !- Visible Transmittance at Normal Incidence
    8.1000000E-02,           !- Front Side Visible Reflectance at Normal Incidence
    8.1000000E-02,           !- Back Side Visible Reflectance at Normal Incidence
    0,                       !- Infrared Transmittance at Normal Incidence
    0.8400000,               !- Front Side Infrared Hemispherical Emissivity
    0.8400000,               !- Back Side Infrared Hemispherical Emissivity
    0.9000000;               !- Conductivity {W/m-K}

  WindowMaterial:Gas,
    WinAirB1 - AIRSPACE RESISTANCE,  !- Name
    AIR,                     !- Gas Type
    1.3000000E-02;           !- Thickness {m}

  WindowMaterial:Screen,
    BRIGHT ALUMINUM SCREEN 1,!- Name
    ModelAsDiffuse,          !- Reflected Beam Transmittance Accounting Method
    0.6,                     !- Diffuse Solar Reflectance {dimensionless}
    0.6,                     !- Diffuse Visible Reflectance {dimensionless}
    0.9,                     !- Thermal Hemispherical Emissivity {dimensionless}
    221.0,                   !- Conductivity {W/m-K}
    0.00154,                 !- Screen Material Spacing {m}
    0.000254,                !- Screen Material Diameter {m}
    0.025,                   !- Screen to Glass Distance {m}
    0.0,                     !- Top Opening Multiplier {dimensionless}
    0.0,                     !- Bottom Opening Multiplier {dimensionless}
    0.0,                     !- Left Side Opening Multiplier {dimensionless}
    0.0,                     !- Right Side Opening Multiplier {dimensionless}
    5;                       !- Angle of Resolution for Screen Transmittance Output Map {deg}

  WindowMaterial:Shade,
    DRAPES - CLOSE WEAVE MEDIUM,  !- Name
    0.05,                    !- Solar Transmittance {dimensionless}
    0.3000000,               !- Solar Reflectance {dimensionless}
    0.05,                    !- Visible Transmittance {dimensionless}
    0.3000000,               !- Visible Reflectance {dimensionless}
    0.9000000,               !- Infrared Hemispherical Emissivity {dimensionless}
    0.0,                     !- Infrared Transmittance {dimensionless}
    0.003,                   !- Thickness {m}
    0.1,                     !- Conductivity {W/m-K}
    0.050,                   !- Shade to Glass Distance {m}
    1.0,                     !- Top Opening Multiplier
    1.0,                     !- Bottom Opening Multiplier
    0.0,                     !- Left-Side Opening Multiplier
    0.0,                     !- Right-Side Opening Multiplier
    0.0;                     !- Airflow Permeability {dimensionless}

  WindowMaterial:Shade,
    SHADE ROLL - LIGHT OPAQUE,  !- Name
    0.05,                    !- Solar Transmittance {dimensionless}
    0.5000000,               !- Solar Reflectance {dimensionless}
    0.05,                    !- Visible Transmittance {dimensionless}
    0.8000000,               !- Visible Reflectance {dimensionless}
    0.9000000,               !- Infrared Hemispherical Emissivity {dimensionless}
    0.0,                     !- Infrared Transmittance {dimensionless}
    0.003,                   !- Thickness {m}
    0.1,                     !- Conductivity {W/m-K}
    0.050,                   !- Shade to Glass Distance {m}
    1.0,                     !- Top Opening Multiplier
    1.0,                     !- Bottom Opening Multiplier
    0.0,                     !- Left-Side Opening Multiplier
    0.0,                     !- Right-Side Opening Multiplier
    0.0;                     !- Airflow Permeability {dimensionless}

  WindowMaterial:Glazing,
    METFILMGLAS,             !- Name
    SpectralAverage,         !- Optical Data Type
    ,                        !- Window Glass Spectral Data Set Name
    3.0000000E-03,           !- Thickness {m}
    0.8700000,               !- Solar Transmittance at Normal Incidence
    7.7681966E-02,           !- Front Side Solar Reflectance at Normal Incidence
    7.7681966E-02,           !- Back Side Solar Reflectance at Normal Incidence
    0.8700000,               !- Visible Transmittance at Normal Incidence
    7.7681966E-02,           !- Front Side Visible Reflectance at Normal Incidence
    7.7681966E-02,           !- Back Side Visible Reflectance at Normal Incidence
    0,                       !- Infrared Transmittance at Normal Incidence
    0.8400000,               !- Front Side Infrared Hemispherical Emissivity
    0.8400000,               !- Back Side Infrared Hemispherical Emissivity
    0.9000000;               !- Conductivity {W/m-K}

  WindowMaterial:Glazing,
    SCGLAS,                  !- Name
    SpectralAverage,         !- Optical Data Type
    ,                        !- Window Glass Spectral Data Set Name
    3.0000000E-03,           !- Thickness {m}
    0.8370000,               !- Solar Transmittance at Normal Incidence
    7.5000000E-02,           !- Front Side Solar Reflectance at Normal Incidence
    7.5000000E-02,           !- Back Side Solar Reflectance at Normal Incidence
    0.8980000,               !- Visible Transmittance at Normal Incidence
    8.1000000E-02,           !- Front Side Visible Reflectance at Normal Incidence
    8.1000000E-02,           !- Back Side Visible Reflectance at Normal Incidence
    0,                       !- Infrared Transmittance at Normal Incidence
    0.8400000,               !- Front Side Infrared Hemispherical Emissivity
    0.8400000,               !- Back Side Infrared Hemispherical Emissivity
    0.9000000;               !- Conductivity {W/m-K}

  Construction,
    EXTERIOR,                !- Name
    A2 - 4 IN DENSE FACE BRICK,  !- Outside Layer
    B3 - 2 IN INSULATION,    !- Layer 2
    C2 - 4 IN LW CONCRETE BLOCK,  !- Layer 3
    E1 - 3 / 4 IN PLASTER OR GYP BOARD;  !- Layer 4

  Construction,
    SINGLE PANE HW WINDOW,   !- Name
    GLASS - CLEAR PLATE 1 / 4 IN;  !- Outside Layer

  Construction,
    FLOOR38,                 !- Name
    E5 - ACOUSTIC TILE,      !- Outside Layer
    E4 - CEILING AIRSPACE,   !- Layer 2
    C12 - 2 IN HW CONCRETE;  !- Layer 3

  Construction,
    ROOF31,                  !- Name
    E2 - 1 / 2 IN SLAG OR STONE,  !- Outside Layer
    E3 - 3 / 8 IN FELT AND MEMBRANE,  !- Layer 2
    B6 - 2 IN DENSE INSULATION,  !- Layer 3
    C12 - 2 IN HW CONCRETE;  !- Layer 4

  Construction,
    DOUBLE PANE WINDOW,      !- Name
    GLASS - CLEAR SHEET 1 / 8 IN,  !- Outside Layer
    WinAirB1 - AIRSPACE RESISTANCE,  !- Layer 2
    GLASS - CLEAR SHEET 1 / 8 IN;  !- Layer 3

  Construction,
    DOUBLE PANE WITH SCREEN, !- Name
    BRIGHT ALUMINUM SCREEN 1,!- Outside Layer
    GLASS - CLEAR SHEET 1 / 8 IN,  !- Layer 2
    WinAirB1 - AIRSPACE RESISTANCE,  !- Layer 3
    GLASS - CLEAR SHEET 1 / 8 IN;  !- Layer 4

  Construction,
    DOUBLE PANE WITH SCREEN:no-shade,  !- Name
    GLASS - CLEAR SHEET 1 / 8 IN,  !- Outside Layer
    WinAirB1 - AIRSPACE RESISTANCE,  !- Layer 2
    GLASS - CLEAR SHEET 1 / 8 IN;  !- Layer 3

  Construction,
    DOUBLE PANE WITH DRAPES, !- Name
    GLASS - CLEAR SHEET 1 / 8 IN,  !- Outside Layer
    WinAirB1 - AIRSPACE RESISTANCE,  !- Layer 2
    GLASS - CLEAR SHEET 1 / 8 IN,  !- Layer 3
    DRAPES - CLOSE WEAVE MEDIUM;  !- Layer 4

  Construction,
    DOUBLE PANE WITH DRAPES:no-shade,  !- Name
    GLASS - CLEAR SHEET 1 / 8 IN,  !- Outside Layer
    WinAirB1 - AIRSPACE RESISTANCE,  !- Layer 2
    GLASS - CLEAR SHEET 1 / 8 IN;  !- Layer 3

  Construction,
    DOUBLE PANE WITH SHADE,  !- Name
    GLASS - CLEAR SHEET 1 / 8 IN,  !- Outside Layer
    WinAirB1 - AIRSPACE RESISTANCE,  !- Layer 2
    GLASS - CLEAR SHEET 1 / 8 IN,  !- Layer 3
    SHADE ROLL - LIGHT OPAQUE;  !- Layer 4

  Construction,
    DOUBLE PANE WITH SHADE:no-shade,  !- Name
    GLASS - CLEAR SHEET 1 / 8 IN,  !- Outside Layer
    WinAirB1 - AIRSPACE RESISTANCE,  !- Layer 2
    GLASS - CLEAR SHEET 1 / 8 IN;  !- Layer 3

  Construction,
    DOUBLE PANE DARKENED,    !- Name
    ELECTRO GLASS DARK 1 / 8 IN,  !- Outside Layer
    WinAirB1 - AIRSPACE RESISTANCE,  !- Layer 2
    GLASS - CLEAR SHEET 1 / 8 IN;  !- Layer 3

  Construction,
    TPW,                     !- Name
    GLASS - CLEAR SHEET 1 / 8 IN,  !- Outside Layer
    WinAirB1 - AIRSPACE RESISTANCE,  !- Layer 2
    GLASS - CLEAR SHEET 1 / 8 IN,  !- Layer 3
    WinAirB1 - AIRSPACE RESISTANCE,  !- Layer 4
    GLASS - CLEAR SHEET 1 / 8 IN;  !- Layer 5

  Construction,
    QPW,                     !- Name
    GLASS - CLEAR SHEET 1 / 8 IN,  !- Outside Layer
    WinAirB1 - AIRSPACE RESISTANCE,  !- Layer 2
    GLASS - CLEAR SHEET 1 / 8 IN,  !- Layer 3
    WinAirB1 - AIRSPACE RESISTANCE,  !- Layer 4
    GLASS - CLEAR SHEET 1 / 8 IN,  !- Layer 5
    WinAirB1 - AIRSPACE RESISTANCE,  !- Layer 6
    GLASS - CLEAR SHEET 1 / 8 IN;  !- Layer 7

  Construction,
    DPM,                     !- Name
    METFILMGLAS,             !- Outside Layer
    WinAirB1 - AIRSPACE RESISTANCE,  !- Layer 2
    GLASS - CLEAR SHEET 1 / 8 IN;  !- Layer 3

  Construction,
    SCWINDOW,                !- Name
    SCGLAS,                  !- Outside Layer
    WinAirB1 - AIRSPACE RESISTANCE,  !- Layer 2
    SCGLAS;                  !- Layer 3

  WindowShadingControl,
    DOUBLE PANE WITH SCREEN-DPWB,  !- Name
    DPWB,                    !- Zone Name
    1,                       !- Shading Control Sequence Number
    ExteriorScreen,          !- Shading Type
    DOUBLE PANE WITH SCREEN, !- Construction with Shading Name
    OnIfScheduleAllows,      !- Shading Control Type
    ScreenSchedule,          !- Schedule Name
    20.0,                    !- Setpoint {W/m2, W or deg C}
    YES,                     !- Shading Control Is Scheduled
    NO,                      !- Glare Control Is Active
    ,                        !- Shading Device Material Name