!-Generator IDFEditor 1.34
!-Option OriginalOrderTop UseSpecialFormat
!-NOTE: All comments with '!-' are ignored by the IDFEditor and are generated automatically.
!-      Use '!' comments if they need to be retained when using the IDFEditor.
! WindACRHControl.idf
! Basic file description:  1 story building divided into 3 conditioned zones. Roof with no plenum.
!                          Window air conditioners serve each zone. Zone dehumidifier in one zone.
!
! Highlights:              Illustrates use of Window air conditioners, with high humidity control
!                          using ZoneHVAC:Dehumidifier:DX in one (NORTH) of the three zones.
!
!
! Simulation Location/Run: USA_FL_Miami.Intl.AP.722020_TMY3, 2 design days, 2 run periods,
!                          Run Control executes the run periods using the weather file
!
! Location:                Miami, FL
!
! Design Days:             Miami Intl Ap_FL_USA Annual Heating 99%, MaxDB=10.9°C
!                          Miami Intl Ap_FL_USA Annual Cooling (DB=>MWB) 1%, MaxDB=32.6°C MWB=25.3°C
!
! Run Period (Weather File): Winter 1/14, Summer 7/7, USA_FL_Miami.Intl.AP.722020_TMY3.epw
!
! Run Control:             Zone and System sizing with weather file run control (no design days run)
!
! Building: Single floor rectangular L-shaped building 40 ft south wall, 40 ft west wall, zone height 10 feet.
!           There is a single window in West Zone's south wall. The walls are 1 in stucco over 4 in common brick
!           and gypboard. The roof is a built up roof with 1/2 in stone over 3/8 in felt over 1 in dense insulation
!           supported by 2 in heavy weight concrete. The window is single pane 3mm clear, with overhang to shade window.
!           The window to wall ratio is approximately 0.07.
!
!           The building is oriented due north.
!
! Floor Area:        130.1 m2 (1403 ft2)
! Number of Stories: 1
!
! Zone Description Details:
!
!       (0,12.192,0)                 (9.144,12.192,0)
!           ________________________________
!          |                                |
!          |                                |
!          |                                |
!          |                                |
!          |           North                |
!          |                                |
!          |                                |
!          |             (6.096,6.096,0)    |
!          |________________________________|____________ (12.192,6.069,0)
!          | (0,6.096,0)        |    (9.144,6.096,0)     |
!          |                    |                        |
!          |                    |                        |
!          |                    |                        |
!          |       West         |         East           |    window = *
!          |                    |                        |
!          |                    |                        |
!          |                    |                        |
!          |___**************___|________________________|
!
!      (0,0,0)             (6.069,0,0)               (12.192,0,0)
!
! Internal gains description:     ZONE West      - lighting is 0 watts, equip is 2928.751 watts, 3 occupants
! Internal gains description:     ZONE North     - lighting is 878.6252 watts, equip is 2928.751 watts, 4 occupants
! Internal gains description:     ZONE East      - lighting is 1464.375 watts, equip is 1464.375 watts, 3 occupants
!
! Interzone Surfaces:             3 interzone surfaces (see diagram)
! Internal Mass:                  Yes
! People:                         10
! Lights:                         2343 W
! Equipment:                      7323 W
! Windows:                        1 (with Shading:Overhang)
! Detached Shading:               None
! Daylight:                       None
! Natural Ventilation:            Yes (ZoneInfiltration:DesignFlowRate, 0.2 ACH)
! Compact Schedules:              Yes
! Solar Distribution:             FullInteriorAndExterior
!
! HVAC:                           Window ACs and hot-water baseboards serving each zone. NO AIR SYSTEM! Purchased hot water.
!                                 Zone 1 uses a cycling fan cycling compressor in a blow-through configuration.
!                                 Zone 2 uses a constant fan cycling compressor in a blow-through configuration.
!                                 Zone 3 uses a constant fan cycling compressor in a draw-through configuration.
!                                 Only the North zone (Zone 3) is served by a ZoneHVAC:Dehumidifier:DX.
!
! Zonal Equipment:                ZoneHVAC:WindowAirConditioner ZoneHVAC:Baseboard:Convective:Water ZoneHVAC:Dehumidifier:DX
! Central Air Handling Equipment: No
! System Equipment Autosize:      No
! Purchased Cooling:              No
! Purchased Heating:              No
! Purchased Chilled Water:        No
! Purchased Hot Water:            Yes
! Coils:                          Coil:Cooling:DX:SingleSpeed
! Pumps:                          Pump:VariableSpeed
! Boilers:                        None
! Chillers:                       None
! Towers:                         None
!
! Results:
! Standard Reports:               None
! Timestep or Hourly Variables:   Hourly
! Time bins Report:               None
! HTML Report:                    None
! Environmental Emissions:        None
! Utility Tariffs:                None

  Version,24.1;

  Building,
    NONE,                    !- Name
    0,                       !- North Axis {deg}
    Suburbs,                 !- Terrain
    3.9999999E-02,           !- Loads Convergence Tolerance Value {W}
    0.4000000,               !- Temperature Convergence Tolerance Value {deltaC}
    FullInteriorAndExterior, !- Solar Distribution
    25,                      !- Maximum Number of Warmup Days
    6;                       !- Minimum Number of Warmup Days

  Timestep,6;

  SurfaceConvectionAlgorithm:Inside,TARP;

  SurfaceConvectionAlgorithm:Outside,DOE-2;

  HeatBalanceAlgorithm,ConductionTransferFunction;

  SimulationControl,
    No,                      !- Do Zone Sizing Calculation
    No,                      !- Do System Sizing Calculation
    No,                      !- Do Plant Sizing Calculation
    Yes,                     !- Run Simulation for Sizing Periods
    Yes,                     !- Run Simulation for Weather File Run Periods
    No,                      !- Do HVAC Sizing Simulation for Sizing Periods
    1;                       !- Maximum Number of HVAC Sizing Simulation Passes

  RunPeriod,
    Run Period 1,            !- Name
    1,                       !- Begin Month
    14,                      !- Begin Day of Month
    ,                        !- Begin Year
    1,                       !- End Month
    14,                      !- End Day of Month
    ,                        !- End Year
    Tuesday,                 !- Day of Week for Start Day
    Yes,                     !- Use Weather File Holidays and Special Days
    Yes,                     !- Use Weather File Daylight Saving Period
    No,                      !- Apply Weekend Holiday Rule
    Yes,                     !- Use Weather File Rain Indicators
    Yes;                     !- Use Weather File Snow Indicators

  RunPeriod,
    Run Period 2,            !- Name
    7,                       !- Begin Month
    7,                       !- Begin Day of Month
    ,                        !- Begin Year
    7,                       !- End Month
    7,                       !- End Day of Month
    ,                        !- End Year
    Tuesday,                 !- Day of Week for Start Day
    Yes,                     !- Use Weather File Holidays and Special Days
    Yes,                     !- Use Weather File Daylight Saving Period
    No,                      !- Apply Weekend Holiday Rule
    Yes,                     !- Use Weather File Rain Indicators
    No;                      !- Use Weather File Snow Indicators

  Site:Location,
    Miami Intl Ap_FL_USA Design_Conditions,  !- Name
    25.82,                   !- Latitude {deg}
    -80.30,                  !- Longitude {deg}
    -5.00,                   !- Time Zone {hr}
    11.00;                   !- Elevation {m}

 ! Miami Intl Ap_FL_USA Annual Heating 99%, MaxDB=10.9°C

  SizingPeriod:DesignDay,
    Miami Intl Ap Ann Htg 99% Condns DB,  !- Name
    1,                       !- Month
    21,                      !- Day of Month
    WinterDesignDay,         !- Day Type
    10.9,                    !- Maximum Dry-Bulb Temperature {C}
    0.0,                     !- Daily Dry-Bulb Temperature Range {deltaC}
    ,                        !- Dry-Bulb Temperature Range Modifier Type
    ,                        !- Dry-Bulb Temperature Range Modifier Day Schedule Name
    Wetbulb,                 !- Humidity Condition Type
    10.9,                    !- Wetbulb or DewPoint at Maximum Dry-Bulb {C}
    ,                        !- Humidity Condition Day Schedule Name
    ,                        !- Humidity Ratio at Maximum Dry-Bulb {kgWater/kgDryAir}
    ,                        !- Enthalpy at Maximum Dry-Bulb {J/kg}
    ,                        !- Daily Wet-Bulb Temperature Range {deltaC}
    101193.,                 !- Barometric Pressure {Pa}
    3.8,                     !- Wind Speed {m/s}
    340,                     !- Wind Direction {deg}
    No,                      !- Rain Indicator
    No,                      !- Snow Indicator
    No,                      !- Daylight Saving Time Indicator
    ASHRAEClearSky,          !- Solar Model Indicator
    ,                        !- Beam Solar Day Schedule Name
    ,                        !- Diffuse Solar Day Schedule Name
    ,                        !- ASHRAE Clear Sky Optical Depth for Beam Irradiance (taub) {dimensionless}
    ,                        !- ASHRAE Clear Sky Optical Depth for Diffuse Irradiance (taud) {dimensionless}
    0.00;                    !- Sky Clearness

 ! Miami Intl Ap_FL_USA Annual Cooling (DB=>MWB) 1%, MaxDB=32.6°C MWB=25.3°C

  SizingPeriod:DesignDay,
    Miami Intl Ap Ann Clg 1% Condns DB=>MWB,  !- Name
    7,                       !- Month
    21,                      !- Day of Month
    SummerDesignDay,         !- Day Type
    32.6,                    !- Maximum Dry-Bulb Temperature {C}
    6.7,                     !- Daily Dry-Bulb Temperature Range {deltaC}
    ,                        !- Dry-Bulb Temperature Range Modifier Type
    ,                        !- Dry-Bulb Temperature Range Modifier Day Schedule Name
    Wetbulb,                 !- Humidity Condition Type
    25.3,                    !- Wetbulb or DewPoint at Maximum Dry-Bulb {C}
    ,                        !- Humidity Condition Day Schedule Name
    ,                        !- Humidity Ratio at Maximum Dry-Bulb {kgWater/kgDryAir}
    ,                        !- Enthalpy at Maximum Dry-Bulb {J/kg}
    ,                        !- Daily Wet-Bulb Temperature Range {deltaC}
    101193.,                 !- Barometric Pressure {Pa}
    4.5,                     !- Wind Speed {m/s}
    140,                     !- Wind Direction {deg}
    No,                      !- Rain Indicator
    No,                      !- Snow Indicator
    No,                      !- Daylight Saving Time Indicator
    ASHRAEClearSky,          !- Solar Model Indicator
    ,                        !- Beam Solar Day Schedule Name
    ,                        !- Diffuse Solar Day Schedule Name
    ,                        !- ASHRAE Clear Sky Optical Depth for Beam Irradiance (taub) {dimensionless}
    ,                        !- ASHRAE Clear Sky Optical Depth for Diffuse Irradiance (taud) {dimensionless}
    1.00;                    !- Sky Clearness

  Site:GroundTemperature:BuildingSurface,21.0,21.5,22.0,22.2,22.2,22.2,22.2,22.2,22.2,22.0,21.5,21.0;

  Material,
    A1 - 1 IN STUCCO,        !- Name
    Smooth,                  !- Roughness
    2.5389841E-02,           !- Thickness {m}
    0.6918309,               !- Conductivity {W/m-K}
    1858.142,                !- Density {kg/m3}
    836.8000,                !- Specific Heat {J/kg-K}
    0.9000000,               !- Thermal Absorptance
    0.9200000,               !- Solar Absorptance
    0.9200000;               !- Visible Absorptance

  Material,
    C4 - 4 IN COMMON BRICK,  !- Name
    Rough,                   !- Roughness
    0.1014984,               !- Thickness {m}
    0.7264224,               !- Conductivity {W/m-K}
    1922.216,                !- Density {kg/m3}
    836.8000,                !- Specific Heat {J/kg-K}
    0.9000000,               !- Thermal Absorptance
    0.7600000,               !- Solar Absorptance
    0.7600000;               !- Visible Absorptance

  Material,
    E1 - 3 / 4 IN PLASTER OR GYP BOARD,  !- Name
    Smooth,                  !- Roughness
    1.9050000E-02,           !- Thickness {m}
    0.7264224,               !- Conductivity {W/m-K}
    1601.846,                !- Density {kg/m3}
    836.8000,                !- Specific Heat {J/kg-K}
    0.9000000,               !- Thermal Absorptance
    0.9200000,               !- Solar Absorptance
    0.9200000;               !- Visible Absorptance

  Material,
    C6 - 8 IN CLAY TILE,     !- Name
    Smooth,                  !- Roughness
    0.2033016,               !- Thickness {m}
    0.5707605,               !- Conductivity {W/m-K}
    1121.292,                !- Density {kg/m3}
    836.8000,                !- Specific Heat {J/kg-K}
    0.9000000,               !- Thermal Absorptance
    0.8200000,               !- Solar Absorptance
    0.8200000;               !- Visible Absorptance

  Material,
    C10 - 8 IN HW CONCRETE,  !- Name
    MediumRough,             !- Roughness
    0.2033016,               !- Thickness {m}
    1.729577,                !- Conductivity {W/m-K}
    2242.585,                !- Density {kg/m3}
    836.8000,                !- Specific Heat {J/kg-K}
    0.9000000,               !- Thermal Absorptance
    0.6500000,               !- Solar Absorptance
    0.6500000;               !- Visible Absorptance

  Material,
    E2 - 1 / 2 IN SLAG OR STONE,  !- Name
    Rough,                   !- Roughness
    1.2710161E-02,           !- Thickness {m}
    1.435549,                !- Conductivity {W/m-K}
    881.0155,                !- Density {kg/m3}
    1673.600,                !- Specific Heat {J/kg-K}
    0.9000000,               !- Thermal Absorptance
    0.5500000,               !- Solar Absorptance
    0.5500000;               !- Visible Absorptance

  Material,
    E3 - 3 / 8 IN FELT AND MEMBRANE,  !- Name
    Rough,                   !- Roughness
    9.5402403E-03,           !- Thickness {m}
    0.1902535,               !- Conductivity {W/m-K}
    1121.292,                !- Density {kg/m3}
    1673.600,                !- Specific Heat {J/kg-K}
    0.9000000,               !- Thermal Absorptance
    0.7500000,               !- Solar Absorptance
    0.7500000;               !- Visible Absorptance

  Material,
    B5 - 1 IN DENSE INSULATION,  !- Name
    VeryRough,               !- Roughness
    2.5389841E-02,           !- Thickness {m}
    4.3239430E-02,           !- Conductivity {W/m-K}
    91.30524,                !- Density {kg/m3}
    836.8000,                !- Specific Heat {J/kg-K}
    0.9000000,               !- Thermal Absorptance
    0.5000000,               !- Solar Absorptance
    0.5000000;               !- Visible Absorptance

  Material,
    C12 - 2 IN HW CONCRETE,  !- Name
    MediumRough,             !- Roughness
    5.0901599E-02,           !- Thickness {m}
    1.729577,                !- Conductivity {W/m-K}
    2242.585,                !- Density {kg/m3}
    836.8000,                !- Specific Heat {J/kg-K}
    0.9000000,               !- Thermal Absorptance
    0.6500000,               !- Solar Absorptance
    0.6500000;               !- Visible Absorptance

! Carpet With Rubber Pad

  Material:NoMass,
    CP02,                    !- Name
    Rough,                   !- Roughness
    0.2170000,               !- Thermal Resistance {m2-K/W}
    0.9000000,               !- Thermal Absorptance
    0.7500000,               !- Solar Absorptance
    0.7500000;               !- Visible Absorptance

  Material,
    MediumFurniture,         !- Name
    MediumSmooth,            !- Roughness
    0.57,                    !- Thickness {m}
    0.115,                   !- Conductivity {W/m-K}
    513,                     !- Density {kg/m3}
    1381,                    !- Specific Heat {J/kg-K}
    0.9,                     !- Thermal Absorptance
    0.78,                    !- Solar Absorptance
    0.78;                    !- Visible Absorptance

  WindowMaterial:Glazing,
    WIN-LAY-GLASS-LIGHT,     !- Name
    SpectralAverage,         !- Optical Data Type
    ,                        !- Window Glass Spectral Data Set Name
    0.003,                   !- Thickness {m}
    0.90,                    !- Solar Transmittance at Normal Incidence
    0.031,                   !- Front Side Solar Reflectance at Normal Incidence
    0.031,                   !- Back Side Solar Reflectance at Normal Incidence
    0.90,                    !- Visible Transmittance at Normal Incidence
    0.05,                    !- Front Side Visible Reflectance at Normal Incidence
    0.05,                    !- Back Side Visible Reflectance at Normal Incidence
    0.0,                     !- Infrared Transmittance at Normal Incidence
    0.84,                    !- Front Side Infrared Hemispherical Emissivity
    0.84,                    !- Back Side Infrared Hemispherical Emissivity
    0.9;                     !- Conductivity {W/m-K}

  Construction,
    EXTWALL80,               !- Name
    A1 - 1 IN STUCCO,        !- Outside Layer
    C4 - 4 IN COMMON BRICK,  !- Layer 2
    E1 - 3 / 4 IN PLASTER OR GYP BOARD;  !- Layer 3

  Construction,
    PARTITION06,             !- Name
    E1 - 3 / 4 IN PLASTER OR GYP BOARD,  !- Outside Layer
    C6 - 8 IN CLAY TILE,     !- Layer 2
    E1 - 3 / 4 IN PLASTER OR GYP BOARD;  !- Layer 3

  Construction,
    FLOOR SLAB 8 IN WITH CARPET,  !- Name
    C10 - 8 IN HW CONCRETE,  !- Outside Layer
    CP02;                    !- Layer 2

  Construction,
    ROOF34,                  !- Name
    E2 - 1 / 2 IN SLAG OR STONE,  !- Outside Layer
    E3 - 3 / 8 IN FELT AND MEMBRANE,  !- Layer 2
    B5 - 1 IN DENSE INSULATION,  !- Layer 3
    C12 - 2 IN HW CONCRETE;  !- Layer 4

  Construction,
    Medium Furniture,        !- Name
    MediumFurniture;         !- Outside Layer

  Construction,
    WIN-CON-LIGHT,           !- Name
    WIN-LAY-GLASS-LIGHT;     !- Outside Layer

! original zone origin (0,0,0)

  Zone,
    West Zone,               !- Name
    0,                       !- Direction of Relative North {deg}
    0,                       !- X Origin {m}
    0,                       !- Y Origin {m}
    0,                       !- Z Origin {m}
    1,                       !- Type
    1,                       !- Multiplier
    autocalculate,           !- Ceiling Height {m}
    autocalculate;           !- Volume {m3}

! original zone origin (6.096,0,0)

  Zone,
    EAST ZONE,               !- Name
    0,                       !- Direction of Relative North {deg}
    0,                       !- X Origin {m}
    0,                       !- Y Origin {m}
    0,                       !- Z Origin {m}
    1,                       !- Type
    1,                       !- Multiplier
    autocalculate,           !- Ceiling Height {m}
    autocalculate;           !- Volume {m3}

! original zone origin (0,6.096,0)

  Zone,
    NORTH ZONE,              !- Name
    0,                       !- Direction of Relative North {deg}
    0,                       !- X Origin {m}
    0,                       !- Y Origin {m}
    0,                       !- Z Origin {m}
    1,                       !- Type
    1,                       !- Multiplier
    autocalculate,           !- Ceiling Height {m}
    autocalculate;           !- Volume {m3}

  GlobalGeometryRules,
    UpperLeftCorner,         !- Starting Vertex Position
    CounterClockWise,        !- Vertex Entry Direction
    World;                   !- Coordinate System

  BuildingSurface:Detailed,
    Zn001:Wall001,           !- Name
    Wall,                    !- Surface Type
    EXTWALL80,               !- Construction Name
    West Zone,               !- Zone Name
    ,                        !- Space Name
    Outdoors,                !- Outside Boundary Condition
    ,                        !- Outside Boundary Condition Object
    SunExposed,              !- Sun Exposure
    WindExposed,             !- Wind Exposure
    0.5000000,               !- View Factor to Ground
    4,                       !- Number of Vertices
    0,0,3.048000,  !- X,Y,Z ==> Vertex 1 {m}
    0,0,0,  !- X,Y,Z ==> Vertex 2 {m}
    6.096000,0,0,  !- X,Y,Z ==> Vertex 3 {m}
    6.096000,0,3.048000;  !- X,Y,Z ==> Vertex 4 {m}

  BuildingSurface:Detailed,
    Zn001:Wall002,           !- Name
    Wall,                    !- Surface Type
    EXTWALL80,               !- Construction Name
    West Zone,               !- Zone Name
    ,                        !- Space Name
    Outdoors,                !- Outside Boundary Condition
    ,                        !- Outside Boundary Condition Object
    SunExposed,              !- Sun Exposure
    WindExposed,             !- Wind Exposure
    0.5000000,               !- View Factor to Ground
    4,                       !- Number of Vertices
    0,6.096000,3.048000,  !- X,Y,Z ==> Vertex 1 {m}
    0,6.096000,0,  !- X,Y,Z ==> Vertex 2 {m}
    0,0,0,  !- X,Y,Z ==> Vertex 3 {m}
    0,0,3.048000;  !- X,Y,Z ==> Vertex 4 {m}

  BuildingSurface:Detailed,
    Zn001:Wall003,           !- Name
    Wall,                    !- Surface Type
    PARTITION06,             !- Construction Name
    West Zone,               !- Zone Name
    ,                        !- Space Name
    Surface,                 !- Outside Boundary Condition
    Zn003:Wall004,           !- Outside Boundary Condition Object
    NoSun,                   !- Sun Exposure
    NoWind,                  !- Wind Exposure
    0.5000000,               !- View Factor to Ground
    4,                       !- Number of Vertices
    6.096000,6.096000,3.048000,  !- X,Y,Z ==> Vertex 1 {m}
    6.096000,6.096000,0,  !- X,Y,Z ==> Vertex 2 {m}
    0,6.096000,0,  !- X,Y,Z ==> Vertex 3 {m}
    0,6.096000,3.048000;  !- X,Y,Z ==> Vertex 4 {m}

  BuildingSurface:Detailed,
    Zn001:Wall004,           !- Name
    Wall,                    !- Surface Type
    PARTITION06,             !- Construction Name
    West Zone,               !- Zone Name
    ,                        !- Space Name
    Surface,                 !- Outside Boundary Condition
    Zn002:Wall004,           !- Outside Boundary Condition Object
    NoSun,                   !- Sun Exposure
    NoWind,                  !- Wind Exposure
    0.5000000,               !- View Factor to Ground
    4,                       !- Number of Vertices
    6.096000,0,3.048000,  !- X,Y,Z ==> Vertex 1 {m}
    6.096000,0,0,  !- X,Y,Z ==> Vertex 2 {m}
    6.096000,6.096000,0,  !- X,Y,Z ==> Vertex 3 {m}
    6.096000,6.096000,3.048000;  !- X,Y,Z ==> Vertex 4 {m}

  BuildingSurface:Detailed,
    Zn001:Flr001,            !- Name
    Floor,                   !- Surface Type
    FLOOR SLAB 8 IN WITH CARPET,  !- Construction Name
    West Zone,               !- Zone Name
    ,                        !- Space Name
    Ground,                  !- Outside Boundary Condition
    ,                        !- Outside Boundary Condition Object
    NoSun,                   !- Sun Exposure
    NoWind,                  !- Wind Exposure
    1.000000,                !- View Factor to Ground
    4,                       !- Number of Vertices
    0,0,0,  !- X,Y,Z ==> Vertex 1 {m}
    0,6.096000,0,  !- X,Y,Z ==> Vertex 2 {m}
    6.096000,6.096000,0,  !- X,Y,Z ==> Vertex 3 {m}
    6.096000,0,0;  !- X,Y,Z ==> Vertex 4 {m}

  BuildingSurface:Detailed,
    Zn001:Roof001,           !- Name
    Roof,                    !- Surface Type
    ROOF34,                  !- Construction Name
    West Zone,               !- Zone Name
    ,                        !- Space Name
    Outdoors,                !- Outside Boundary Condition
    ,                        !- Outside Boundary Condition Object
    SunExposed,              !- Sun Exposure
    WindExposed,             !- Wind Exposure
    0,                       !- View Factor to Ground
    4,                       !- Number of Vertices
    0,6.096000,3.048000,  !- X,Y,Z ==> Vertex 1 {m}
    0,0,3.048000,  !- X,Y,Z ==> Vertex 2 {m}
    6.096000,0,3.048000,  !- X,Y,Z ==> Vertex 3 {m}
    6.096000,6.096000,3.048000;  !- X,Y,Z ==> Vertex 4 {m}

  BuildingSurface:Detailed,
    Zn002:Wall001,           !- Name
    Wall,                    !- Surface Type
    EXTWALL80,               !- Construction Name
    EAST ZONE,               !- Zone Name
    ,                        !- Space Name
    Outdoors,                !- Outside Boundary Condition
    ,                        !- Outside Boundary Condition Object
    SunExposed,              !- Sun Exposure
    WindExposed,             !- Wind Exposure
    0.5000000,               !- View Factor to Ground
    4,                       !- Number of Vertices
    12.19200,6.096000,3.048000,  !- X,Y,Z ==> Vertex 1 {m}
    12.19200,6.096000,0,  !- X,Y,Z ==> Vertex 2 {m}
    9.144000,6.096000,0,  !- X,Y,Z ==> Vertex 3 {m}
    9.144000,6.096000,3.048000;  !- X,Y,Z ==> Vertex 4 {m}

  BuildingSurface:Detailed,
    Zn002:Wall002,           !- Name
    Wall,                    !- Surface Type
    EXTWALL80,               !- Construction Name
    EAST ZONE,               !- Zone Name
    ,                        !- Space Name
    Outdoors,                !- Outside Boundary Condition
    ,                        !- Outside Boundary Condition Object
    SunExposed,              !- Sun Exposure
    WindExposed,             !- Wind Exposure
    0.5000000,               !- View Factor to Ground
    4,                       !- Number of Vertices
    6.096000,0,3.048000,  !- X,Y,Z ==> Vertex 1 {m}
    6.096000,0,0,  !- X,Y,Z ==> Vertex 2 {m}
    12.19200,0,0,  !- X,Y,Z ==> Vertex 3 {m}
    12.19200,0,3.048000;  !- X,Y,Z ==> Vertex 4 {m}

  BuildingSurface:Detailed,
    Zn002:Wall003,           !- Name
    Wall,                    !- Surface Type
    EXTWALL80,               !- Construction Name
    EAST ZONE,               !- Zone Name
    ,                        !- Space Name
    Outdoors,                !- Outside Boundary Condition
    ,                        !- Outside Boundary Condition Object
    SunExposed,              !- Sun Exposure
    WindExposed,             !- Wind Exposure
    0.5000000,               !- View Factor to Ground
    4,                       !- Number of Vertices
    12.19200,0,3.048000,  !- X,Y,Z ==> Vertex 1 {m}
    12.19200,0,0,  !- X,Y,Z ==> Vertex 2 {m}
    12.19200,6.096000,0,  !- X,Y,Z ==> Vertex 3 {m}
    12.19200,6.096000,3.048000;  !- X,Y,Z ==> Vertex 4 {m}

  BuildingSurface:Detailed,
    Zn002:Wall004,           !- Name
    Wall,                    !- Surface Type
    PARTITION06,             !- Construction Name
    EAST ZONE,               !- Zone Name
    ,                        !- Space Name
    Surface,                 !- Outside Boundary Condition
    Zn001:Wall004,           !- Outside Boundary Condition Object
    NoSun,                   !- Sun Exposure
    NoWind,                  !- Wind Exposure
    0.5000000,               !- View Factor to Ground
    4,                       !- Number of Vertices
    6.096000,6.096000,3.048000,  !- X,Y,Z ==> Vertex 1 {m}
    6.096000,6.096000,0,  !- X,Y,Z ==> Vertex 2 {m}
    6.096000,0,0,  !- X,Y,Z ==> Vertex 3 {m}
    6.096000,0,3.048000;  !- X,Y,Z ==> Vertex 4 {m}

  BuildingSurface:Detailed,
    Zn002:Wall005,           !- Name
    Wall,                    !- Surface Type
    PARTITION06,             !- Construction Name
    EAST ZONE,               !- Zone Name
    ,                        !- Space Name
    Surface,                 !- Outside Boundary Condition
    Zn003:Wall005,           !- Outside Boundary Condition Object
    NoSun,                   !- Sun Exposure
    NoWind,                  !- Wind Exposure
    0.5000000,               !- View Factor to Ground
    4,                       !- Number of Vertices
    9.144000,6.096000,3.048000,  !- X,Y,Z ==> Vertex 1 {m}
    9.144000,6.096000,0,  !- X,Y,Z ==> Vertex 2 {m}
    6.096000,6.096000,0,  !- X,Y,Z ==> Vertex 3 {m}
    6.096000,6.096000,3.048000;  !- X,Y,Z ==> Vertex 4 {m}

  BuildingSurface:Detailed,
    Zn002:Flr001,            !- Name
    Floor,                   !- Surface Type
    FLOOR SLAB 8 IN WITH CARPET,  !- Construction Name
    EAST ZONE,               !- Zone Name
    ,                        !- Space Name
    Ground,                  !- Outside Boundary Condition
    ,                        !- Outside Boundary Condition Object
    NoSun,                   !- Sun Exposure
    NoWind,                  !- Wind Exposure
    1.000000,                !- View Factor to Ground
    4,                       !- Number of Vertices
    6.096000,0,0,  !- X,Y,Z ==> Vertex 1 {m}
    6.096000,6.096000,0,  !- X,Y,Z ==> Vertex 2 {m}
    12.19200,6.096000,0,  !- X,Y,Z ==> Vertex 3 {m}
    12.19200,0,0;  !- X,Y,Z ==> Vertex 4 {m}

  BuildingSurface:Detailed,
    Zn002:Roof001,           !- Name
    Roof,                    !- Surface Type
    ROOF34,                  !- Construction Name
    EAST ZONE,               !- Zone Name
    ,                        !- Space Name
    Outdoors,                !- Outside Boundary Condition
    ,                        !- Outside Boundary Condition Object
    SunExposed,              !- Sun Exposure
    WindExposed,             !- Wind Exposure
    0,                       !- View Factor to Ground
    4,                       !- Number of Vertices