!-Generator IDFEditor 1.34
!-Option OriginalOrderTop UseSpecialFormat
!-NOTE: All comments with '!-' are ignored by the IDFEditor and are generated automatically.
!-      Use '!' comments if they need to be retained when using the IDFEditor.
! WindACAuto.idf
! Basic file description:  1 story building divided into 3 conditioned zones. Roof with no plenum.
!                          No ground contact with floor. Window air conditioners serve each zone.
!
! Highlights:              illustrates use of Window air conditioners with autosizing.
!
! Simulation Location/Run: CHICAGO_IL_USA TMY2-94846, 2 design days, 2 run periods,
!                          Run Control executes the run periods using the weather file
!
! Location:                Chicago, IL
!
! Design Days:             CHICAGO_IL_USA Annual Heating 99% Design Conditions DB, MaxDB= -17.3°C
!                          CHICAGO_IL_USA Annual Cooling 1% Design Conditions, MaxDB=  31.5°C MCWB=  23.0°C
!
! Run Period (Weather File): Winter 1/14, Summer 7/7, CHICAGO_IL_USA TMY2-94846
!
! Run Control:             Zone and System sizing with weather file run control (no design days run)
!
! Building: Single floor rectangular L-shaped building 40 ft south wall, 40 ft west wall, zone height 10 feet.
!           There is a single window in West Zone's south wall. The walls are 1 in stucco over 4 in common brick
!           and gypboard. The roof is a built up roof with 1/2 in stone over 3/8 in felt over 1 in dense insulation
!           supported by 2 in heavy weight concrete. The window is single pane 3mm clear.
!           The window to wall ratio is approximately 0.07.
!
!           The building is oriented due north.
!
! Floor Area:        130.1 m2 (1403 ft2)
! Number of Stories: 1
!
! Zone Description Details:
!
!       (0,12.192,0)                 (9.144,12.192,0)
!           ________________________________
!          |                                |
!          |                                |
!          |                                |
!          |                                |
!          |           North                |
!          |                                |
!          |                                |
!          |             (6.096,6.096,0)    |
!          |________________________________|____________ (12.192,6.069,0)
!          | (0,6.096,0)        |    (9.144,6.096,0)     |
!          |                    |                        |
!          |                    |                        |
!          |                    |                        |
!          |       West         |         East           |    window = *
!          |                    |                        |
!          |                    |                        |
!          |                    |                        |
!          |___**************___|________________________|
!
!      (0,0,0)             (6.069,0,0)               (12.192,0,0)
!
! Internal gains description:     ZONE West      - lighting is 0 watts, equip is 2928.751 watts, 3 occupants
! Internal gains description:     ZONE North     - lighting is 878.6252 watts, equip is 2928.751 watts, 4 occupants
! Internal gains description:     ZONE East      - lighting is 1464.375 watts, equip is 1464.375 watts, 3 occupants
!
! Interzone Surfaces:             3 interzone surfaces (see diagram)
! Internal Mass:                  None
! People:                         10
! Lights:                         2343 W
! Equipment:                      7323 W
! Windows:                        1
! Detached Shading:               None
! Daylight:                       None
! Natural Ventilation:            None
! Compact Schedules:              Yes
! Solar Distribution:             FullInteriorAndExterior
!
! HVAC:                           Window ACs and hot-water baseboards serving each zone. NO AIR SYSTEM! Purchased hot water.
!                                 Zone 1 uses a cycling fan cycling compressor in a blow-through configuration.
!                                 Zone 2 uses a constant fan cycling compressor in a blow-through configuration.
!                                 Zone 3 uses a constant fan cycling compressor in a draw-through configuration.
!
! Zonal Equipment:                ZoneHVAC:WindowAirConditioner ZoneHVAC:Baseboard:Convective:Water
! Central Air Handling Equipment: No
! System Equipment Autosize:      Yes
! Purchased Cooling:              No
! Purchased Heating:              No
! Purchased Chilled Water:        No
! Purchased Hot Water:            Yes
! Coils:                          Coil:Cooling:DX:SingleSpeed
! Pumps:                          Pump:VariableSpeed
! Boilers:                        None
! Chillers:                       None
! Towers:                         None
!
! Results:
! Standard Reports:               All Summary Predefined Reports
! Timestep or Hourly Variables:   Hourly
! Time bins Report:               None
! HTML Report:                    Predefined All Summary
! Environmental Emissions:        None
! Utility Tariffs:                None

  Version,24.1;

  Timestep,6;

  Building,
    NONE,                    !- Name
    0,                       !- North Axis {deg}
    Suburbs,                 !- Terrain
    3.9999999E-02,           !- Loads Convergence Tolerance Value {W}
    0.4000000,               !- Temperature Convergence Tolerance Value {deltaC}
    FullInteriorAndExterior, !- Solar Distribution
    25,                      !- Maximum Number of Warmup Days
    6;                       !- Minimum Number of Warmup Days

  HeatBalanceAlgorithm,ConductionTransferFunction;

  SurfaceConvectionAlgorithm:Inside,TARP;

  SurfaceConvectionAlgorithm:Outside,DOE-2;

  RunPeriod,
    Run Period 1,            !- Name
    1,                       !- Begin Month
    14,                      !- Begin Day of Month
    ,                        !- Begin Year
    1,                       !- End Month
    14,                      !- End Day of Month
    ,                        !- End Year
    Tuesday,                 !- Day of Week for Start Day
    Yes,                     !- Use Weather File Holidays and Special Days
    Yes,                     !- Use Weather File Daylight Saving Period
    No,                      !- Apply Weekend Holiday Rule
    Yes,                     !- Use Weather File Rain Indicators
    Yes;                     !- Use Weather File Snow Indicators

  RunPeriod,
    Run Period 2,            !- Name
    7,                       !- Begin Month
    7,                       !- Begin Day of Month
    ,                        !- Begin Year
    7,                       !- End Month
    7,                       !- End Day of Month
    ,                        !- End Year
    Tuesday,                 !- Day of Week for Start Day
    Yes,                     !- Use Weather File Holidays and Special Days
    Yes,                     !- Use Weather File Daylight Saving Period
    No,                      !- Apply Weekend Holiday Rule
    Yes,                     !- Use Weather File Rain Indicators
    Yes;                     !- Use Weather File Snow Indicators

  Site:Location,
    CHICAGO_IL_USA TMY2-94846,  !- Name
    41.78,                   !- Latitude {deg}
    -87.75,                  !- Longitude {deg}
    -6.00,                   !- Time Zone {hr}
    190.00;                  !- Elevation {m}

  SimulationControl,
    Yes,                     !- Do Zone Sizing Calculation
    No,                      !- Do System Sizing Calculation
    No,                      !- Do Plant Sizing Calculation
    No,                      !- Run Simulation for Sizing Periods
    Yes,                     !- Run Simulation for Weather File Run Periods
    No,                      !- Do HVAC Sizing Simulation for Sizing Periods
    1;                       !- Maximum Number of HVAC Sizing Simulation Passes

! CHICAGO_IL_USA Annual Heating 99% Design Conditions DB, MaxDB= -17.3°C

  SizingPeriod:DesignDay,
    CHICAGO_IL_USA Annual Heating 99% Design Conditions DB,  !- Name
    1,                       !- Month
    21,                      !- Day of Month
    WinterDesignDay,         !- Day Type
    -17.3,                   !- Maximum Dry-Bulb Temperature {C}
    0.0,                     !- Daily Dry-Bulb Temperature Range {deltaC}
    ,                        !- Dry-Bulb Temperature Range Modifier Type
    ,                        !- Dry-Bulb Temperature Range Modifier Day Schedule Name
    Wetbulb,                 !- Humidity Condition Type
    -17.3,                   !- Wetbulb or DewPoint at Maximum Dry-Bulb {C}
    ,                        !- Humidity Condition Day Schedule Name
    ,                        !- Humidity Ratio at Maximum Dry-Bulb {kgWater/kgDryAir}
    ,                        !- Enthalpy at Maximum Dry-Bulb {J/kg}
    ,                        !- Daily Wet-Bulb Temperature Range {deltaC}
    99063.,                  !- Barometric Pressure {Pa}
    4.9,                     !- Wind Speed {m/s}
    270,                     !- Wind Direction {deg}
    No,                      !- Rain Indicator
    No,                      !- Snow Indicator
    No,                      !- Daylight Saving Time Indicator
    ASHRAEClearSky,          !- Solar Model Indicator
    ,                        !- Beam Solar Day Schedule Name
    ,                        !- Diffuse Solar Day Schedule Name
    ,                        !- ASHRAE Clear Sky Optical Depth for Beam Irradiance (taub) {dimensionless}
    ,                        !- ASHRAE Clear Sky Optical Depth for Diffuse Irradiance (taud) {dimensionless}
    1.0;                     !- Sky Clearness

! CHICAGO_IL_USA Annual Cooling 1% Design Conditions, MaxDB=  31.5°C MCWB=  23.0°C

  SizingPeriod:DesignDay,
    CHICAGO_IL_USA Annual Cooling 1% Design Conditions DB/MCWB,  !- Name
    7,                       !- Month
    21,                      !- Day of Month
    SummerDesignDay,         !- Day Type
    31.5,                    !- Maximum Dry-Bulb Temperature {C}
    10.7,                    !- Daily Dry-Bulb Temperature Range {deltaC}
    ,                        !- Dry-Bulb Temperature Range Modifier Type
    ,                        !- Dry-Bulb Temperature Range Modifier Day Schedule Name
    Wetbulb,                 !- Humidity Condition Type
    23.0,                    !- Wetbulb or DewPoint at Maximum Dry-Bulb {C}
    ,                        !- Humidity Condition Day Schedule Name
    ,                        !- Humidity Ratio at Maximum Dry-Bulb {kgWater/kgDryAir}
    ,                        !- Enthalpy at Maximum Dry-Bulb {J/kg}
    ,                        !- Daily Wet-Bulb Temperature Range {deltaC}
    99063.,                  !- Barometric Pressure {Pa}
    5.3,                     !- Wind Speed {m/s}
    230,                     !- Wind Direction {deg}
    No,                      !- Rain Indicator
    No,                      !- Snow Indicator
    No,                      !- Daylight Saving Time Indicator
    ASHRAEClearSky,          !- Solar Model Indicator
    ,                        !- Beam Solar Day Schedule Name
    ,                        !- Diffuse Solar Day Schedule Name
    ,                        !- ASHRAE Clear Sky Optical Depth for Beam Irradiance (taub) {dimensionless}
    ,                        !- ASHRAE Clear Sky Optical Depth for Diffuse Irradiance (taud) {dimensionless}
    1.0;                     !- Sky Clearness

  Material,
    A1 - 1 IN STUCCO,        !- Name
    Smooth,                  !- Roughness
    2.5389841E-02,           !- Thickness {m}
    0.6918309,               !- Conductivity {W/m-K}
    1858.142,                !- Density {kg/m3}
    836.8000,                !- Specific Heat {J/kg-K}
    0.9000000,               !- Thermal Absorptance
    0.9200000,               !- Solar Absorptance
    0.9200000;               !- Visible Absorptance

  Material,
    C4 - 4 IN COMMON BRICK,  !- Name
    Rough,                   !- Roughness
    0.1014984,               !- Thickness {m}
    0.7264224,               !- Conductivity {W/m-K}
    1922.216,                !- Density {kg/m3}
    836.8000,                !- Specific Heat {J/kg-K}
    0.9000000,               !- Thermal Absorptance
    0.7600000,               !- Solar Absorptance
    0.7600000;               !- Visible Absorptance

  Material,
    E1 - 3 / 4 IN PLASTER OR GYP BOARD,  !- Name
    Smooth,                  !- Roughness
    1.9050000E-02,           !- Thickness {m}
    0.7264224,               !- Conductivity {W/m-K}
    1601.846,                !- Density {kg/m3}
    836.8000,                !- Specific Heat {J/kg-K}
    0.9000000,               !- Thermal Absorptance
    0.9200000,               !- Solar Absorptance
    0.9200000;               !- Visible Absorptance

  Material,
    C6 - 8 IN CLAY TILE,     !- Name
    Smooth,                  !- Roughness
    0.2033016,               !- Thickness {m}
    0.5707605,               !- Conductivity {W/m-K}
    1121.292,                !- Density {kg/m3}
    836.8000,                !- Specific Heat {J/kg-K}
    0.9000000,               !- Thermal Absorptance
    0.8200000,               !- Solar Absorptance
    0.8200000;               !- Visible Absorptance

  Material,
    C10 - 8 IN HW CONCRETE,  !- Name
    MediumRough,             !- Roughness
    0.2033016,               !- Thickness {m}
    1.729577,                !- Conductivity {W/m-K}
    2242.585,                !- Density {kg/m3}
    836.8000,                !- Specific Heat {J/kg-K}
    0.9000000,               !- Thermal Absorptance
    0.6500000,               !- Solar Absorptance
    0.6500000;               !- Visible Absorptance

  Material,
    E2 - 1 / 2 IN SLAG OR STONE,  !- Name
    Rough,                   !- Roughness
    1.2710161E-02,           !- Thickness {m}
    1.435549,                !- Conductivity {W/m-K}
    881.0155,                !- Density {kg/m3}
    1673.600,                !- Specific Heat {J/kg-K}
    0.9000000,               !- Thermal Absorptance
    0.5500000,               !- Solar Absorptance
    0.5500000;               !- Visible Absorptance

  Material,
    E3 - 3 / 8 IN FELT AND MEMBRANE,  !- Name
    Rough,                   !- Roughness
    9.5402403E-03,           !- Thickness {m}
    0.1902535,               !- Conductivity {W/m-K}
    1121.292,                !- Density {kg/m3}
    1673.600,                !- Specific Heat {J/kg-K}
    0.9000000,               !- Thermal Absorptance
    0.7500000,               !- Solar Absorptance
    0.7500000;               !- Visible Absorptance

  Material,
    B5 - 1 IN DENSE INSULATION,  !- Name
    VeryRough,               !- Roughness
    2.5389841E-02,           !- Thickness {m}
    4.3239430E-02,           !- Conductivity {W/m-K}
    91.30524,                !- Density {kg/m3}
    836.8000,                !- Specific Heat {J/kg-K}
    0.9000000,               !- Thermal Absorptance
    0.5000000,               !- Solar Absorptance
    0.5000000;               !- Visible Absorptance

  Material,
    C12 - 2 IN HW CONCRETE,  !- Name
    MediumRough,             !- Roughness
    5.0901599E-02,           !- Thickness {m}
    1.729577,                !- Conductivity {W/m-K}
    2242.585,                !- Density {kg/m3}
    836.8000,                !- Specific Heat {J/kg-K}
    0.9000000,               !- Thermal Absorptance
    0.6500000,               !- Solar Absorptance
    0.6500000;               !- Visible Absorptance

  WindowMaterial:Glazing,
    WIN-LAY-GLASS-LIGHT,     !- Name
    SpectralAverage,         !- Optical Data Type
    ,                        !- Window Glass Spectral Data Set Name
    0.003,                   !- Thickness {m}
    0.90,                    !- Solar Transmittance at Normal Incidence
    0.031,                   !- Front Side Solar Reflectance at Normal Incidence
    0.031,                   !- Back Side Solar Reflectance at Normal Incidence
    0.90,                    !- Visible Transmittance at Normal Incidence
    0.05,                    !- Front Side Visible Reflectance at Normal Incidence
    0.05,                    !- Back Side Visible Reflectance at Normal Incidence
    0.0,                     !- Infrared Transmittance at Normal Incidence
    0.84,                    !- Front Side Infrared Hemispherical Emissivity
    0.84,                    !- Back Side Infrared Hemispherical Emissivity
    0.9;                     !- Conductivity {W/m-K}

  Construction,
    EXTWALL80,               !- Name
    A1 - 1 IN STUCCO,        !- Outside Layer
    C4 - 4 IN COMMON BRICK,  !- Layer 2
    E1 - 3 / 4 IN PLASTER OR GYP BOARD;  !- Layer 3

  Construction,
    PARTITION06,             !- Name
    E1 - 3 / 4 IN PLASTER OR GYP BOARD,  !- Outside Layer
    C6 - 8 IN CLAY TILE,     !- Layer 2
    E1 - 3 / 4 IN PLASTER OR GYP BOARD;  !- Layer 3

  Construction,
    FLOOR SLAB 8 IN,         !- Name
    C10 - 8 IN HW CONCRETE;  !- Outside Layer

  Construction,
    ROOF34,                  !- Name
    E2 - 1 / 2 IN SLAG OR STONE,  !- Outside Layer
    E3 - 3 / 8 IN FELT AND MEMBRANE,  !- Layer 2
    B5 - 1 IN DENSE INSULATION,  !- Layer 3
    C12 - 2 IN HW CONCRETE;  !- Layer 4

  Construction,
    WIN-CON-LIGHT,           !- Name
    WIN-LAY-GLASS-LIGHT;     !- Outside Layer

  ScheduleTypeLimits,
    Any Number;              !- Name

  ScheduleTypeLimits,
    Fraction,                !- Name
    0.0,                     !- Lower Limit Value
    1.0,                     !- Upper Limit Value
    CONTINUOUS;              !- Numeric Type

  ScheduleTypeLimits,
    Temperature,             !- Name
    -60,                     !- Lower Limit Value
    200,                     !- Upper Limit Value
    CONTINUOUS,              !- Numeric Type
    Temperature;             !- Unit Type

  ScheduleTypeLimits,
    Control Type,            !- Name
    0,                       !- Lower Limit Value
    4,                       !- Upper Limit Value
    DISCRETE;                !- Numeric Type

  ScheduleTypeLimits,
    On/Off,                  !- Name
    0,                       !- Lower Limit Value
    1,                       !- Upper Limit Value
    DISCRETE;                !- Numeric Type

  Schedule:Compact,
    Activity Sch,            !- Name
    Any Number,              !- Schedule Type Limits Name
    Through: 12/31,          !- Field 1
    For: Alldays,            !- Field 2
    Until: 24:00,131.80;     !- Field 3

  Schedule:Compact,
    Work Eff Sch,            !- Name
    Any Number,              !- Schedule Type Limits Name
    Through: 12/31,          !- Field 1
    For: Alldays,            !- Field 2
    Until: 24:00,0.00;       !- Field 3

  Schedule:Compact,
    Clothing Sch,            !- Name
    Any Number,              !- Schedule Type Limits Name
    Through: 12/31,          !- Field 1
    For: Alldays,            !- Field 2
    Until: 24:00,1.00;       !- Field 3

  Schedule:Compact,
    Air Velo Sch,            !- Name
    Any Number,              !- Schedule Type Limits Name
    Through: 12/31,          !- Field 1
    For: Alldays,            !- Field 2
    Until: 24:00,0.137;      !- Field 3

  Schedule:Compact,
    Office Occupancy,        !- Name
    ANY NUMBER,              !- Schedule Type Limits Name
    Through: 12/31,          !- Field 1
    For: Weekdays,           !- Field 2
    Until: 6:00,0.00,        !- Field 3
    Until: 7:00,0.10,        !- Field 5
    Until: 8:00,0.50,        !- Field 7
    Until: 12:00,1.00,       !- Field 9
    Until: 13:00,0.50,       !- Field 11
    Until: 16:00,1.00,       !- Field 13
    Until: 17:00,0.50,       !- Field 15
    Until: 18:00,0.10,       !- Field 17
    Until: 24:00,0.00,       !- Field 19
    For: Weekends Holidays CustomDay1 CustomDay2, !- Field 21
    Until: 24:00,0.00,       !- Field 22
    For: SummerDesignDay,    !- Field 24
    Until: 24:00,1.00,       !- Field 25
    For: WinterDesignDay,    !- Field 27
    Until: 24:00,5.00E-002;  !- Field 28

  Schedule:Compact,
    Intermittent,            !- Name
    ANY NUMBER,              !- Schedule Type Limits Name
    Through: 12/31,          !- Field 1
    For: Weekdays,           !- Field 2
    Until: 8:00,0.00,        !- Field 3
    Until: 18:00,1.00,       !- Field 5
    Until: 24:00,0.00,       !- Field 7
    For: Weekends Holidays CustomDay1 CustomDay2, !- Field 9
    Until: 24:00,0.00,       !- Field 10
    For: SummerDesignDay,    !- Field 12
    Until: 24:00,1.00,       !- Field 13
    For: WinterDesignDay,    !- Field 15
    Until: 24:00,0.15;       !- Field 16

  Schedule:Compact,
    Office Lighting,         !- Name
    ANY NUMBER,              !- Schedule Type Limits Name
    Through: 12/31,          !- Field 1
    For: Weekdays,           !- Field 2
    Until: 6:00,5.00E-002,   !- Field 3
    Until: 7:00,0.20,        !- Field 5
    Until: 17:00,1.00,       !- Field 7
    Until: 18:00,0.50,       !- Field 9
    Until: 24:00,5.00E-002,  !- Field 11
    For: Weekends Holidays CustomDay1 CustomDay2, !- Field 13
    Until: 24:00,5.00E-002,  !- Field 14
    For: SummerDesignDay,    !- Field 16
    Until: 24:00,1.00,       !- Field 17
    For: WinterDesignDay,    !- Field 19
    Until: 24:00,0.15;       !- Field 20

  Schedule:Compact,
    ON,                      !- Name
    Fraction,                !- Schedule Type Limits Name
    Through: 12/31,          !- Field 1
    For: Alldays,            !- Field 2
    Until: 24:00,1.00;       !- Field 3

  Schedule:Compact,
    HW LOOP TEMP SCHEDULE,   !- Name
    TEMPERATURE,             !- Schedule Type Limits Name
    Through: 12/31,          !- Field 1
    For: Alldays,            !- Field 2
    Until: 24:00,82.00;      !- Field 3

  Schedule:Compact,
    FANANDCOILAVAILSCHED,    !- Name
    FRACTION,                !- Schedule Type Limits Name
    Through: 3/31,           !- Field 1
    For: Alldays,            !- Field 2
    Until: 24:00,1.00,       !- Field 3
    Through: 9/30,           !- Field 5
    For: Weekdays,           !- Field 6
    Until: 7:00,0.00,        !- Field 7
    Until: 17:00,1.00,       !- Field 9
    Until: 24:00,0.00,       !- Field 11
    For: Weekends Holidays CustomDay1 CustomDay2, !- Field 13
    Until: 24:00,0.00,       !- Field 14
    For: SummerDesignDay WinterDesignDay, !- Field 16
    Until: 24:00,1.00,       !- Field 17
    Through: 12/31,          !- Field 19
    For: Alldays,            !- Field 20
    Until: 24:00,1.00;       !- Field 21

  Schedule:Compact,
    COOLINGCOILAVAILSCHED,   !- Name
    FRACTION,                !- Schedule Type Limits Name
    Through: 3/31,           !- Field 1
    For: Alldays,            !- Field 2
    Until: 24:00,0.00,       !- Field 3
    Through: 9/30,           !- Field 5
    For: Weekdays,           !- Field 6
    Until: 7:00,0.00,        !- Field 7
    Until: 17:00,1.00,       !- Field 9
    Until: 24:00,0.00,       !- Field 11
    For: Weekends Holidays CustomDay1 CustomDay2, !- Field 13
    Until: 24:00,0.00,       !- Field 14
    For: SummerDesignDay WinterDesignDay, !- Field 16
    Until: 24:00,1.00,       !- Field 17
    Through: 12/31,          !- Field 19
    For: Alldays,            !- Field 20
    Until: 24:00,0.00;       !- Field 21

  Schedule:Compact,
    HEATING SETPOINTS,       !- Name
    TEMPERATURE,             !- Schedule Type Limits Name
    Through: 12/31,          !- Field 1
    For: Weekdays Weekends Holidays CustomDay1 CustomDay2, !- Field 2
    Until: 7:00,15.00,       !- Field 3
    Until: 17:00,20.00,      !- Field 5
    Until: 24:00,15.00,      !- Field 7
    For: SummerDesignDay,    !- Field 9
    Until: 24:00,15.00,      !- Field 10
    For: WinterDesignDay,    !- Field 12
    Until: 24:00,20.00;      !- Field 13

  Schedule:Compact,
    COOLING SETPOINTS,       !- Name
    TEMPERATURE,             !- Schedule Type Limits Name
    Through: 12/31,          !- Field 1
    For: Weekdays Weekends Holidays CustomDay1 CustomDay2, !- Field 2
    Until: 7:00,30.00,       !- Field 3
    Until: 17:00,24.00,      !- Field 5
    Until: 24:00,30.00,      !- Field 7
    For: SummerDesignDay,    !- Field 9
    Until: 24:00,24.00,      !- Field 10
    For: WinterDesignDay,    !- Field 12
    Until: 24:00,50.00;      !- Field 13

  Schedule:Compact,
    ZONE CONTROL TYPE SCHED, !- Name
    CONTROL TYPE,            !- Schedule Type Limits Name
    Through: 3/31,           !- Field 1
    For: Alldays,            !- Field 2
    Until: 24:00,1,          !- Field 3
    Through: 9/30,           !- Field 5
    For: Alldays,            !- Field 6
    Until: 24:00,2,          !- Field 7
    Through: 12/31,          !- Field 9
    For: Alldays,            !- Field 10
    Until: 24:00,1;          !- Field 11

  Schedule:Compact,
    CYCLINGFANSCH,           !- Name
    FRACTION,                !- Schedule Type Limits Name
    Through: 12/31,          !- Field 1
    For: Alldays,            !- Field 2
    Until: 24:00,0.00;       !- Field 3

  Schedule:Compact,
    CONSTANTFANSCH,          !- Name
    FRACTION,                !- Schedule Type Limits Name
    Through: 12/31,          !- Field 1
    For: Alldays,            !- Field 2
    Until: 24:00,1.00;       !- Field 3

  Site:GroundTemperature:BuildingSurface,20.03,20.03,20.13,20.30,20.43,20.52,20.62,20.77,20.78,20.55,20.44,20.20;

! original zone origin (0,0,0)

  Zone,
    West Zone,               !- Name
    0,                       !- Direction of Relative North {deg}
    0,                       !- X Origin {m}
    0,                       !- Y Origin {m}
    0,                       !- Z Origin {m}
    1,                       !- Type
    1,                       !- Multiplier
    autocalculate,           !- Ceiling Height {m}
    autocalculate;           !- Volume {m3}

! original zone origin (6.096,0,0)

  Zone,
    EAST ZONE,               !- Name
    0,                       !- Direction of Relative North {deg}
    0,                       !- X Origin {m}
    0,                       !- Y Origin {m}
    0,                       !- Z Origin {m}
    1,                       !- Type
    1,                       !- Multiplier
    autocalculate,           !- Ceiling Height {m}
    autocalculate;           !- Volume {m3}

! original zone origin (0,6.096,0)

  Zone,
    NORTH ZONE,              !- Name
    0,                       !- Direction of Relative North {deg}
    0,                       !- X Origin {m}
    0,                       !- Y Origin {m}
    0,                       !- Z Origin {m}
    1,                       !- Type
    1,                       !- Multiplier
    autocalculate,           !- Ceiling Height {m}
    autocalculate;           !- Volume {m3}

  People,
    West Zone,               !- Name
    West Zone,               !- Zone or ZoneList or Space or SpaceList Name
    Office Occupancy,        !- Number of People Schedule Name
    people,                  !- Number of People Calculation Method
    3.000000,                !- Number of People
    ,                        !- People per Floor Area {person/m2}
    ,                        !- Floor Area per Person {m2/person}
    0.3000000,               !- Fraction Radiant
    ,                        !- Sensible Heat Fraction
    Activity Sch,            !- Activity Level Schedule Name
    3.82E-8,                 !- Carbon Dioxide Generation Rate {m3/s-W}
    ,                        !- Enable ASHRAE 55 Comfort Warnings
    EnclosureAveraged,       !- Mean Radiant Temperature Calculation Type
    ,                        !- Surface Name/Angle Factor List Name
    Work Eff Sch,            !- Work Efficiency Schedule Name
    ClothingInsulationSchedule,  !- Clothing Insulation Calculation Method
    ,                        !- Clothing Insulation Calculation Method Schedule Name
    Clothing Sch,            !- Clothing Insulation Schedule Name
    Air Velo Sch,            !- Air Velocity Schedule Name
    FANGER;                  !- Thermal Comfort Model 1 Type

  ElectricEquipment,
    West Zone ElecEq 1,      !- Name
    West Zone,               !- Zone or ZoneList or Space or SpaceList Name
    Intermittent,            !- Schedule Name
    EquipmentLevel,          !- Design Level Calculation Method
    2928.751,                !- Design Level {W}
    ,                        !- Watts per Zone Floor Area {W/m2}
    ,                        !- Watts per Person {W/person}
    0,                       !- Fraction Latent
    0.3000000,               !- Fraction Radiant
    0;                       !- Fraction Lost

  People,
    EAST ZONE,               !- Name
    EAST ZONE,               !- Zone or ZoneList or Space or SpaceList Name
    Office Occupancy,        !- Number of People Schedule Name
    people,                  !- Number of People Calculation Method
    3.000000,                !- Number of People
    ,                        !- People per Floor Area {person/m2}
    ,                        !- Floor Area per Person {m2/person}
    0.3000000,               !- Fraction Radiant
    ,                        !- Sensible Heat Fraction
    Activity Sch,            !- Activity Level Schedule Name
    3.82E-8,                 !- Carbon Dioxide Generation Rate {m3/s-W}
    ,                        !- Enable ASHRAE 55 Comfort Warnings
    EnclosureAveraged,       !- Mean Radiant Temperature Calculation Type
    ,                        !- Surface Name/Angle Factor List Name
    Work Eff Sch,            !- Work Efficiency Schedule Name
    ClothingInsulationSchedule,  !- Clothing Insulation Calculation Method
    ,                        !- Clothing Insulation Calculation Method Schedule Name
    Clothing Sch,            !- Clothing Insulation Schedule Name
    Air Velo Sch,            !- Air Velocity Schedule Name
    FANGER;                  !- Thermal Comfort Model 1 Type

  Lights,
    EAST ZONE Lights 1,      !- Name
    EAST ZONE,               !- Zone or ZoneList or Space or SpaceList Name