!-Generator IDFEditor 1.34
!-Option OriginalOrderTop UseSpecialFormat
!-NOTE: All comments with '!-' are ignored by the IDFEditor and are generated automatically.
!-      Use '!' comments if they need to be retained when using the IDFEditor.
! GSHPSimple-GLHE.idf
! Basic File Description:
! HeatPump:WatertoWater:EquationFit Cooling & Heating and GLHE
! Condenser Loop Served by GROUND LOOP HEAT EXCHANGER
! heat gains due to light equipment and occupation increased
! Basic file description: Basic test of the HeatPump:WatertoWaterSimple Cooling & Heating
! Run:      Two periods in Jan and July.
! Building: Fictional 3 zone building with interzone partitions connecting all zones together.
!           No ground contact (all floors are "partitions").  Roofs exposed to outdoor environment.
!           There is one single pane window.
! Internal: People, equipment, and lighting all at approximately "normal" levels and schedules.
! System:   3 zone terminal reheat system using a single air loop.  Controlled about like the old
!           BLAST "NWS2" control profile.  Heating up to 21 C during occupied hours, 18 C otherwise.
!           Cooling to 24 C while occupied, 30 C otherwise.  Fans and coils scheduled to be unavailable
!           during unoccupied hours.  Cooling coil off all winter.  Reheat coil on all year.
!           System configuration is very basic--air loop has a fan and cooling coil, each zone leg has
!           nothing more than a reheat coil.
! Plant:    Heating loop served by water-to-water heat pump (heating).  Cooling loop served by
!           a second water-to-water heat pump (cooling). Both heatpumps are on the same condenser
!           loop. Heat rejection/extraction from the environment is via a ground loop heat exchanger
!           system.  Priority based controls determine which piece of equipment
!           tries to meet the load.
! SolDis=FullInteriorAndExterior, Aniso, Detailed Interior and Exterior Convection

  Version,24.1;

  Timestep,6;

  Building,
    NONE,                    !- Name
    0,                       !- North Axis {deg}
    Suburbs,                 !- Terrain
    3.9999999E-02,           !- Loads Convergence Tolerance Value {W}
    0.4000000,               !- Temperature Convergence Tolerance Value {deltaC}
    FullInteriorAndExterior, !- Solar Distribution
    25,                      !- Maximum Number of Warmup Days
    6;                       !- Minimum Number of Warmup Days

  HeatBalanceAlgorithm,ConductionTransferFunction;

  SurfaceConvectionAlgorithm:Inside,TARP;

  SurfaceConvectionAlgorithm:Outside,DOE-2;

  Output:VariableDictionary,Regular;

  SimulationControl,
    YES,                     !- Do Zone Sizing Calculation
    YES,                     !- Do System Sizing Calculation
    YES,                     !- Do Plant Sizing Calculation
    YES,                     !- Run Simulation for Sizing Periods
    NO,                      !- Run Simulation for Weather File Run Periods
    No,                      !- Do HVAC Sizing Simulation for Sizing Periods
    1;                       !- Maximum Number of HVAC Sizing Simulation Passes

  Site:Location,
    CHICAGO_IL_USA TMY2-94846,  !- Name
    41.78,                   !- Latitude {deg}
    -87.75,                  !- Longitude {deg}
    -6.00,                   !- Time Zone {hr}
    190.00;                  !- Elevation {m}

  Sizing:Parameters,
    1.25,                    !- Heating Sizing Factor
    1.15,                    !- Cooling Sizing Factor
    6;                       !- Timesteps in Averaging Window

! CHICAGO_IL_USA Annual Heating 99% Design Conditions DB, MaxDB= -17.3°C

  SizingPeriod:DesignDay,
    CHICAGO_IL_USA Annual Heating 99% Design Conditions DB,  !- Name
    1,                       !- Month
    21,                      !- Day of Month
    WinterDesignDay,         !- Day Type
    -17.3,                   !- Maximum Dry-Bulb Temperature {C}
    0.0,                     !- Daily Dry-Bulb Temperature Range {deltaC}
    ,                        !- Dry-Bulb Temperature Range Modifier Type
    ,                        !- Dry-Bulb Temperature Range Modifier Day Schedule Name
    Wetbulb,                 !- Humidity Condition Type
    -17.3,                   !- Wetbulb or DewPoint at Maximum Dry-Bulb {C}
    ,                        !- Humidity Condition Day Schedule Name
    ,                        !- Humidity Ratio at Maximum Dry-Bulb {kgWater/kgDryAir}
    ,                        !- Enthalpy at Maximum Dry-Bulb {J/kg}
    ,                        !- Daily Wet-Bulb Temperature Range {deltaC}
    99063.,                  !- Barometric Pressure {Pa}
    4.9,                     !- Wind Speed {m/s}
    270,                     !- Wind Direction {deg}
    No,                      !- Rain Indicator
    No,                      !- Snow Indicator
    No,                      !- Daylight Saving Time Indicator
    ASHRAEClearSky,          !- Solar Model Indicator
    ,                        !- Beam Solar Day Schedule Name
    ,                        !- Diffuse Solar Day Schedule Name
    ,                        !- ASHRAE Clear Sky Optical Depth for Beam Irradiance (taub) {dimensionless}
    ,                        !- ASHRAE Clear Sky Optical Depth for Diffuse Irradiance (taud) {dimensionless}
    0.0;                     !- Sky Clearness

! CHICAGO_IL_USA Annual Cooling 1% Design Conditions, MaxDB=  31.5°C MCWB=  23.0°C

  SizingPeriod:DesignDay,
    CHICAGO_IL_USA Annual Cooling 1% Design Conditions DB/MCWB,  !- Name
    7,                       !- Month
    21,                      !- Day of Month
    SummerDesignDay,         !- Day Type
    31.5,                    !- Maximum Dry-Bulb Temperature {C}
    10.7,                    !- Daily Dry-Bulb Temperature Range {deltaC}
    ,                        !- Dry-Bulb Temperature Range Modifier Type
    ,                        !- Dry-Bulb Temperature Range Modifier Day Schedule Name
    Wetbulb,                 !- Humidity Condition Type
    23.0,                    !- Wetbulb or DewPoint at Maximum Dry-Bulb {C}
    ,                        !- Humidity Condition Day Schedule Name
    ,                        !- Humidity Ratio at Maximum Dry-Bulb {kgWater/kgDryAir}
    ,                        !- Enthalpy at Maximum Dry-Bulb {J/kg}
    ,                        !- Daily Wet-Bulb Temperature Range {deltaC}
    99063.,                  !- Barometric Pressure {Pa}
    5.3,                     !- Wind Speed {m/s}
    230,                     !- Wind Direction {deg}
    No,                      !- Rain Indicator
    No,                      !- Snow Indicator
    No,                      !- Daylight Saving Time Indicator
    ASHRAEClearSky,          !- Solar Model Indicator
    ,                        !- Beam Solar Day Schedule Name
    ,                        !- Diffuse Solar Day Schedule Name
    ,                        !- ASHRAE Clear Sky Optical Depth for Beam Irradiance (taub) {dimensionless}
    ,                        !- ASHRAE Clear Sky Optical Depth for Diffuse Irradiance (taud) {dimensionless}
    1.0;                     !- Sky Clearness

  RunPeriod,
    Run Period 1,            !- Name
    1,                       !- Begin Month
    1,                       !- Begin Day of Month
    ,                        !- Begin Year
    1,                       !- End Month
    11,                      !- End Day of Month
    ,                        !- End Year
    ,                        !- Day of Week for Start Day
    Yes,                     !- Use Weather File Holidays and Special Days
    Yes,                     !- Use Weather File Daylight Saving Period
    No,                      !- Apply Weekend Holiday Rule
    Yes,                     !- Use Weather File Rain Indicators
    Yes;                     !- Use Weather File Snow Indicators

  RunPeriod,
    Run Period 2,            !- Name
    7,                       !- Begin Month
    15,                      !- Begin Day of Month
    ,                        !- Begin Year
    7,                       !- End Month
    25,                      !- End Day of Month
    ,                        !- End Year
    ,                        !- Day of Week for Start Day
    Yes,                     !- Use Weather File Holidays and Special Days
    Yes,                     !- Use Weather File Daylight Saving Period
    No,                      !- Apply Weekend Holiday Rule
    Yes,                     !- Use Weather File Rain Indicators
    Yes;                     !- Use Weather File Snow Indicators

  Output:DebuggingData,
    No,                      !- Report Debugging Data
    No;                      !- Report During Warmup

  Material,
    A1 - 1 IN STUCCO,        !- Name
    Smooth,                  !- Roughness
    2.5389841E-02,           !- Thickness {m}
    0.6918309,               !- Conductivity {W/m-K}
    1858.142,                !- Density {kg/m3}
    836.8000,                !- Specific Heat {J/kg-K}
    0.9000000,               !- Thermal Absorptance
    0.9200000,               !- Solar Absorptance
    0.9200000;               !- Visible Absorptance

  Material,
    C4 - 4 IN COMMON BRICK,  !- Name
    Rough,                   !- Roughness
    0.1014984,               !- Thickness {m}
    0.7264224,               !- Conductivity {W/m-K}
    1922.216,                !- Density {kg/m3}
    836.8000,                !- Specific Heat {J/kg-K}
    0.9000000,               !- Thermal Absorptance
    0.7600000,               !- Solar Absorptance
    0.7600000;               !- Visible Absorptance

  Material,
    E1 - 3 / 4 IN PLASTER OR GYP BOARD,  !- Name
    Smooth,                  !- Roughness
    1.9050000E-02,           !- Thickness {m}
    0.7264224,               !- Conductivity {W/m-K}
    1601.846,                !- Density {kg/m3}
    836.8000,                !- Specific Heat {J/kg-K}
    0.9000000,               !- Thermal Absorptance
    0.9200000,               !- Solar Absorptance
    0.9200000;               !- Visible Absorptance

  Material,
    C6 - 8 IN CLAY TILE,     !- Name
    Smooth,                  !- Roughness
    0.2033016,               !- Thickness {m}
    0.5707605,               !- Conductivity {W/m-K}
    1121.292,                !- Density {kg/m3}
    836.8000,                !- Specific Heat {J/kg-K}
    0.9000000,               !- Thermal Absorptance
    0.8200000,               !- Solar Absorptance
    0.8200000;               !- Visible Absorptance

  Material,
    C10 - 8 IN HW CONCRETE,  !- Name
    MediumRough,             !- Roughness
    0.2033016,               !- Thickness {m}
    1.729577,                !- Conductivity {W/m-K}
    2242.585,                !- Density {kg/m3}
    836.8000,                !- Specific Heat {J/kg-K}
    0.9000000,               !- Thermal Absorptance
    0.6500000,               !- Solar Absorptance
    0.6500000;               !- Visible Absorptance

  Material,
    E2 - 1 / 2 IN SLAG OR STONE,  !- Name
    Rough,                   !- Roughness
    1.2710161E-02,           !- Thickness {m}
    1.435549,                !- Conductivity {W/m-K}
    881.0155,                !- Density {kg/m3}
    1673.600,                !- Specific Heat {J/kg-K}
    0.9000000,               !- Thermal Absorptance
    0.5500000,               !- Solar Absorptance
    0.5500000;               !- Visible Absorptance

  Material,
    E3 - 3 / 8 IN FELT AND MEMBRANE,  !- Name
    Rough,                   !- Roughness
    9.5402403E-03,           !- Thickness {m}
    0.1902535,               !- Conductivity {W/m-K}
    1121.292,                !- Density {kg/m3}
    1673.600,                !- Specific Heat {J/kg-K}
    0.9000000,               !- Thermal Absorptance
    0.7500000,               !- Solar Absorptance
    0.7500000;               !- Visible Absorptance

  Material,
    B5 - 1 IN DENSE INSULATION,  !- Name
    VeryRough,               !- Roughness
    2.5389841E-02,           !- Thickness {m}
    4.3239430E-02,           !- Conductivity {W/m-K}
    91.30524,                !- Density {kg/m3}
    836.8000,                !- Specific Heat {J/kg-K}
    0.9000000,               !- Thermal Absorptance
    0.5000000,               !- Solar Absorptance
    0.5000000;               !- Visible Absorptance

  Material,
    C12 - 2 IN HW CONCRETE,  !- Name
    MediumRough,             !- Roughness
    5.0901599E-02,           !- Thickness {m}
    1.729577,                !- Conductivity {W/m-K}
    2242.585,                !- Density {kg/m3}
    836.8000,                !- Specific Heat {J/kg-K}
    0.9000000,               !- Thermal Absorptance
    0.6500000,               !- Solar Absorptance
    0.6500000;               !- Visible Absorptance

  WindowMaterial:Glazing,
    WIN-LAY-GLASS-LIGHT,     !- Name
    SpectralAverage,         !- Optical Data Type
    ,                        !- Window Glass Spectral Data Set Name
    0.003,                   !- Thickness {m}
    0.90,                    !- Solar Transmittance at Normal Incidence
    0.031,                   !- Front Side Solar Reflectance at Normal Incidence
    0.031,                   !- Back Side Solar Reflectance at Normal Incidence
    0.90,                    !- Visible Transmittance at Normal Incidence
    0.05,                    !- Front Side Visible Reflectance at Normal Incidence
    0.05,                    !- Back Side Visible Reflectance at Normal Incidence
    0.0,                     !- Infrared Transmittance at Normal Incidence
    0.84,                    !- Front Side Infrared Hemispherical Emissivity
    0.84,                    !- Back Side Infrared Hemispherical Emissivity
    0.9;                     !- Conductivity {W/m-K}

  Construction,
    EXTWALL80,               !- Name
    A1 - 1 IN STUCCO,        !- Outside Layer
    C4 - 4 IN COMMON BRICK,  !- Layer 2
    E1 - 3 / 4 IN PLASTER OR GYP BOARD;  !- Layer 3

  Construction,
    PARTITION06,             !- Name
    E1 - 3 / 4 IN PLASTER OR GYP BOARD,  !- Outside Layer
    C6 - 8 IN CLAY TILE,     !- Layer 2
    E1 - 3 / 4 IN PLASTER OR GYP BOARD;  !- Layer 3

  Construction,
    FLOOR SLAB 8 IN,         !- Name
    C10 - 8 IN HW CONCRETE;  !- Outside Layer

  Construction,
    ROOF34,                  !- Name
    E2 - 1 / 2 IN SLAG OR STONE,  !- Outside Layer
    E3 - 3 / 8 IN FELT AND MEMBRANE,  !- Layer 2
    B5 - 1 IN DENSE INSULATION,  !- Layer 3
    C12 - 2 IN HW CONCRETE;  !- Layer 4

  Construction,
    WIN-CON-LIGHT,           !- Name
    WIN-LAY-GLASS-LIGHT;     !- Outside Layer

  ScheduleTypeLimits,
    Any Number;              !- Name

  ScheduleTypeLimits,
    Fraction,                !- Name
    0.0,                     !- Lower Limit Value
    1.0,                     !- Upper Limit Value
    CONTINUOUS;              !- Numeric Type

  ScheduleTypeLimits,
    Temperature,             !- Name
    -60,                     !- Lower Limit Value
    200,                     !- Upper Limit Value
    CONTINUOUS,              !- Numeric Type
    Temperature;             !- Unit Type

  ScheduleTypeLimits,
    Control Type,            !- Name
    0,                       !- Lower Limit Value
    4,                       !- Upper Limit Value
    DISCRETE;                !- Numeric Type

  ScheduleTypeLimits,
    On/Off,                  !- Name
    0,                       !- Lower Limit Value
    1,                       !- Upper Limit Value
    DISCRETE;                !- Numeric Type

  Schedule:Compact,
    Activity Sch,            !- Name
    Any Number,              !- Schedule Type Limits Name
    Through: 12/31,          !- Field 1
    For: AllDays,            !- Field 2
    Until: 24:00,131.8;      !- Field 3

  Schedule:Compact,
    Work Eff Sch,            !- Name
    Any Number,              !- Schedule Type Limits Name
    Through: 12/31,          !- Field 1
    For: AllDays,            !- Field 2
    Until: 24:00,0.0;        !- Field 3

  Schedule:Compact,
    Clothing Sch,            !- Name
    Any Number,              !- Schedule Type Limits Name
    Through: 12/31,          !- Field 1
    For: AllDays,            !- Field 2
    Until: 24:00,1.0;        !- Field 3

  Schedule:Compact,
    Air Velo Sch,            !- Name
    Any Number,              !- Schedule Type Limits Name
    Through: 12/31,          !- Field 1
    For: AllDays,            !- Field 2
    Until: 24:00,0.137;      !- Field 3

  Schedule:Compact,
    BLDG Sch   1,            !- Name
    Any Number,              !- Schedule Type Limits Name
    Through: 12/31,          !- Field 1
    For: Weekday,            !- Field 2
    Until: 6:00,0.00,        !- Field 3
    Until: 7:00,0.10,        !- Field 5
    Until: 8:00,0.50,        !- Field 7
    Until: 12:00,1.00,       !- Field 9
    Until: 13:00,0.50,       !- Field 11
    Until: 16:00,1.00,       !- Field 13
    Until: 17:00,0.50,       !- Field 15
    Until: 18:00,0.10,       !- Field 17
    Until: 24:00,0.00,       !- Field 19
    For: AllOtherDays,       !- Field 21
    Until: 24:00,0.10;       !- Field 22

  Schedule:Compact,
    BLDG Sch   2,            !- Name
    Any Number,              !- Schedule Type Limits Name
    Through: 12/31,          !- Field 1
    For: Weekday,            !- Field 2
    Until: 08:00,0.10,       !- Field 3
    Until: 18:00,1.00,       !- Field 5
    Until: 24:00,0.10,       !- Field 7
    For: AllOtherDays,       !- Field 9
    Until: 24:00,0.10;       !- Field 10

  Schedule:Compact,
    BLDG Sch   3,            !- Name
    Any Number,              !- Schedule Type Limits Name
    Through: 12/31,          !- Field 1
    For: Weekday,            !- Field 2
    Until: 06:00,0.05,       !- Field 3
    Until: 07:00,0.20,       !- Field 5
    Until: 17:00,1.00,       !- Field 7
    Until: 18:00,0.50,       !- Field 9
    Until: 24:00,0.05,       !- Field 11
    For: AllOtherDays,       !- Field 13
    Until: 24:00,0.05;       !- Field 14

  Schedule:Compact,
    summer on,               !- Name
    Fraction,                !- Schedule Type Limits Name
    Through: 4/30,           !- Field 1
    For: AllDays,            !- Field 2
    Until: 24:00,0,          !- Field 3
    Through: 9/30,           !- Field 5
    For: AllDays,            !- Field 6
    Until: 24:00,1,          !- Field 7
    Through: 12/31,          !- Field 9
    For: AllDays,            !- Field 10
    Until: 24:00,0;          !- Field 11

  Schedule:Compact,
    winter on,               !- Name
    Fraction,                !- Schedule Type Limits Name
    Through: 4/30,           !- Field 1
    For: AllDays,            !- Field 2
    Until: 24:00,1,          !- Field 3
    Through: 9/30,           !- Field 5
    For: AllDays,            !- Field 6
    Until: 24:00,0,          !- Field 7
    Through: 12/31,          !- Field 9
    For: AllDays,            !- Field 10
    Until: 24:00,1;          !- Field 11

  Schedule:Compact,
    SEASONAL RESET SUPPLY AIR TEMP SCH,  !- Name
    TEMPERATURE,             !- Schedule Type Limits Name
    Through: 3/31,           !- Field 1
    For: AllDays,            !- Field 2
    Until: 24:00,16.00,      !- Field 3
    Through: 9/30,           !- Field 5
    For: AllDays,            !- Field 6
    Until: 24:00,13.00,      !- Field 7
    Through: 12/31,          !- Field 9
    For: AllDays,            !- Field 10
    Until: 24:00,16.00;      !- Field 11

  Schedule:Compact,
    CW Loop Temp Schedule,   !- Name
    Temperature,             !- Schedule Type Limits Name
    Through: 12/31,          !- Field 1
    For: AllDays,            !- Field 2
    Until: 24:00,6.67;       !- Field 3

  Schedule:Compact,
    HW Loop Temp Schedule,   !- Name
    Temperature,             !- Schedule Type Limits Name
    Through: 12/31,          !- Field 1
    For: AllDays,            !- Field 2
    Until: 24:00,45.0;       !- Field 3

  Schedule:Compact,
    FanAndCoilAvailSched,    !- Name
    Fraction,                !- Schedule Type Limits Name
    Through: 3/31,           !- Field 1
    For: AllDays,            !- Field 2
    Until: 24:00,1.0,        !- Field 3
    Through: 9/30,           !- Field 5
    For: Weekday Weekend,    !- Field 6
    Until: 07:00,0.0,        !- Field 7
    Until: 17:00,1.0,        !- Field 9
    Until: 24:00,0.0,        !- Field 11
    For: AllOtherDays,       !- Field 13
    Until: 24:00,0.0,        !- Field 14
    Through: 12/31,          !- Field 16
    For: AllDays,            !- Field 17
    Until: 24:00,1.0;        !- Field 18

  Schedule:Compact,
    HEATING SETPOINTS,       !- Name
    TEMPERATURE,             !- Schedule Type Limits Name
    Through: 12/31,          !- Field 1
    For: Weekdays weekends holiday, !- Field 2
    Until: 8:00,15.00,       !- Field 3
    Until: 18:00,20.00,      !- Field 5
    Until: 24:00,15.00,      !- Field 7
    For: SummerDesignDay,    !- Field 9
    Until: 24:00,20.00,      !- Field 10
    For: WinterDesignDay,    !- Field 12
    Until: 24:00,20.00,      !- Field 13
    For: CustomDay1 CustomDay2, !- Field 15
    Until: 8:00,15.00,       !- Field 16
    Until: 18:00,20.00,      !- Field 18
    Until: 24:00,15.00;      !- Field 20

  Schedule:Compact,
    COOLING SETPOINTS,       !- Name
    TEMPERATURE,             !- Schedule Type Limits Name
    Through: 12/31,          !- Field 1
    For: Weekdays weekends holiday, !- Field 2
    Until: 8:00,30.00,       !- Field 3
    Until: 18:00,24.00,      !- Field 5
    Until: 24:00,30.00,      !- Field 7
    For: SummerDesignDay,    !- Field 9
    Until: 24:00,20.00,      !- Field 10
    For: WinterDesignDay,    !- Field 12
    Until: 24:00,20.00,      !- Field 13
    For: CustomDay1 CustomDay2, !- Field 15
    Until: 8:00,30.00,       !- Field 16
    Until: 18:00,24.00,      !- Field 18
    Until: 24:00,30.00;      !- Field 20

  Schedule:Compact,
    Zone Control Type Sched, !- Name
    Control Type,            !- Schedule Type Limits Name
    Through: 3/31,           !- Field 1
    For: AllDays,            !- Field 2
    Until: 24:00,1,          !- Field 3
    Through: 9/30,           !- Field 5
    For: AllDays,            !- Field 6
    Until: 24:00,2,          !- Field 7
    Through: 12/31,          !- Field 9
    For: AllDays,            !- Field 10
    Until: 24:00,1;          !- Field 11

  ScheduleTypeLimits,
    FlowRate,                !- Name
    0.0,                     !- Lower Limit Value
    10,                      !- Upper Limit Value
    CONTINUOUS;              !- Numeric Type

  Schedule:Compact,
    ON,                      !- Name
    Fraction,                !- Schedule Type Limits Name
    Through: 12/31,          !- Field 1
    For: AllDays,            !- Field 2
    Until: 24:00,1.0;        !- Field 3

  Site:GroundTemperature:Deep,13.03,13.03,13.13,13.30,13.43,13.52,13.62,13.77,13.78,13.55,13.44,13.20;

! original zone origin (0,0,0)

  Zone,
    West Zone,               !- Name
    0,                       !- Direction of Relative North {deg}
    0,                       !- X Origin {m}
    0,                       !- Y Origin {m}
    0,                       !- Z Origin {m}
    1,                       !- Type
    1,                       !- Multiplier
    autocalculate,           !- Ceiling Height {m}
    autocalculate;           !- Volume {m3}

! original zone origin (6.096,0,0)

  Zone,
    EAST ZONE,               !- Name
    0,                       !- Direction of Relative North {deg}
    0,                       !- X Origin {m}
    0,                       !- Y Origin {m}
    0,                       !- Z Origin {m}
    1,                       !- Type
    1,                       !- Multiplier
    autocalculate,           !- Ceiling Height {m}
    autocalculate;           !- Volume {m3}

! original zone origin (0,6.096,0)

  Zone,
    NORTH ZONE,              !- Name
    0,                       !- Direction of Relative North {deg}
    0,                       !- X Origin {m}
    0,                       !- Y Origin {m}
    0,                       !- Z Origin {m}
    1,                       !- Type
    1,                       !- Multiplier
    autocalculate,           !- Ceiling Height {m}
    autocalculate;           !- Volume {m3}

  Sizing:Zone,
    West Zone,               !- Zone or ZoneList Name
    SupplyAirTemperature,    !- Zone Cooling Design Supply Air Temperature Input Method
    14.,                     !- Zone Cooling Design Supply Air Temperature {C}
    ,                        !- Zone Cooling Design Supply Air Temperature Difference {deltaC}
    SupplyAirTemperature,    !- Zone Heating Design Supply Air Temperature Input Method
    50.,                     !- Zone Heating Design Supply Air Temperature {C}
    ,                        !- Zone Heating Design Supply Air Temperature Difference {deltaC}
    0.009,                   !- Zone Cooling Design Supply Air Humidity Ratio {kgWater/kgDryAir}
    0.009,                   !- Zone Heating Design Supply Air Humidity Ratio {kgWater/kgDryAir}
    SZ DSOA West Zone,       !- Design Specification Outdoor Air Object Name
    0.0,                     !- Zone Heating Sizing Factor
    0.0,                     !- Zone Cooling Sizing Factor
    DesignDay,               !- Cooling Design Air Flow Method
    0,                       !- Cooling Design Air Flow Rate {m3/s}
    ,                        !- Cooling Minimum Air Flow per Zone Floor Area {m3/s-m2}
    ,                        !- Cooling Minimum Air Flow {m3/s}
    ,                        !- Cooling Minimum Air Flow Fraction
    DesignDay,               !- Heating Design Air Flow Method
    0,                       !- Heating Design Air Flow Rate {m3/s}
    ,                        !- Heating Maximum Air Flow per Zone Floor Area {m3/s-m2}
    ,                        !- Heating Maximum Air Flow {m3/s}
    ,                        !- Heating Maximum Air Flow Fraction
    ,                        !- Design Specification Zone Air Distribution Object Name
    No,                      !- Account for Dedicated Outdoor Air System
    NeutralSupplyAir,        !- Dedicated Outdoor Air System Control Strategy
    autosize,                !- Dedicated Outdoor Air Low Setpoint Temperature for Design {C}
    autosize;                !- Dedicated Outdoor Air High Setpoint Temperature for Design {C}

  DesignSpecification:OutdoorAir,
    SZ DSOA West Zone,       !- Name
    flow/zone,               !- Outdoor Air Method
    0.0,                     !- Outdoor Air Flow per Person {m3/s-person}
    0.0,                     !- Outdoor Air Flow per Zone Floor Area {m3/s-m2}
    0.0;                     !- Outdoor Air Flow per Zone {m3/s}

  Sizing:Zone,
    EAST ZONE,               !- Zone or ZoneList Name
    SupplyAirTemperature,    !- Zone Cooling Design Supply Air Temperature Input Method
    14.,                     !- Zone Cooling Design Supply Air Temperature {C}
    ,                        !- Zone Cooling Design Supply Air Temperature Difference {deltaC}
    SupplyAirTemperature,    !- Zone Heating Design Supply Air Temperature Input Method
    50.,                     !- Zone Heating Design Supply Air Temperature {C}
    ,                        !- Zone Heating Design Supply Air Temperature Difference {deltaC}
    0.009,                   !- Zone Cooling Design Supply Air Humidity Ratio {kgWater/kgDryAir}
    0.009,                   !- Zone Heating Design Supply Air Humidity Ratio {kgWater/kgDryAir}
    SZ DSOA EAST ZONE,       !- Design Specification Outdoor Air Object Name
    0.0,                     !- Zone Heating Sizing Factor
    0.0,                     !- Zone Cooling Sizing Factor
    DesignDay,               !- Cooling Design Air Flow Method
    0,                       !- Cooling Design Air Flow Rate {m3/s}
    ,                        !- Cooling Minimum Air Flow per Zone Floor Area {m3/s-m2}
    ,                        !- Cooling Minimum Air Flow {m3/s}
    ,                        !- Cooling Minimum Air Flow Fraction
    DesignDay,               !- Heating Design Air Flow Method
    0,                       !- Heating Design Air Flow Rate {m3/s}
    ,                        !- Heating Maximum Air Flow per Zone Floor Area {m3/s-m2}
    ,                        !- Heating Maximum Air Flow {m3/s}
    ,                        !- Heating Maximum Air Flow Fraction
    ,                        !- Design Specification Zone Air Distribution Object Name
    No,                      !- Account for Dedicated Outdoor Air System
    NeutralSupplyAir,        !- Dedicated Outdoor Air System Control Strategy
    autosize,                !- Dedicated Outdoor Air Low Setpoint Temperature for Design {C}
    autosize;                !- Dedicated Outdoor Air High Setpoint Temperature for Design {C}

  DesignSpecification:OutdoorAir,
    SZ DSOA EAST ZONE,       !- Name
    flow/zone,               !- Outdoor Air Method
    0.0,                     !- Outdoor Air Flow per Person {m3/s-person}
    0.0,                     !- Outdoor Air Flow per Zone Floor Area {m3/s-m2}
    0.0;                     !- Outdoor Air Flow per Zone {m3/s}

  Sizing:Zone,
    NORTH ZONE,              !- Zone or ZoneList Name
    SupplyAirTemperature,    !- Zone Cooling Design Supply Air Temperature Input Method
    14.,                     !- Zone Cooling Design Supply Air Temperature {C}
    ,                        !- Zone Cooling Design Supply Air Temperature Difference {deltaC}
    SupplyAirTemperature,    !- Zone Heating Design Supply Air Temperature Input Method
    50.,                     !- Zone Heating Design Supply Air Temperature {C}
    ,                        !- Zone Heating Design Supply Air Temperature Difference {deltaC}
    0.009,                   !- Zone Cooling Design Supply Air Humidity Ratio {kgWater/kgDryAir}
    0.009,                   !- Zone Heating Design Supply Air Humidity Ratio {kgWater/kgDryAir}
    SZ DSOA NORTH ZONE,      !- Design Specification Outdoor Air Object Name