!-Generator IDFEditor 1.44
!-Option SortedOrder
!-NOTE: All comments with '!-' are ignored by the IDFEditor and are generated automatically.
!- Use '!' comments if they need to be retained when using the IDFEditor.
!- =========== ALL OBJECTS IN CLASS: VERSION ===========
! ZoneCoupledGroundHTBasement.idf
! Basic File Description:
! This input file exemplifies the use of the Site:GroundDomain:Basement
! object to perform the simulation of ground coupled heat transfer.
! exchangers
! Highlights: Simulates ground coupled heat transfer with basement zone.
! Simulation Location/Run:
! Location: Denver, CO
! Design Days SummerDesignDay and WinterDesignDay
! Run Period: Annual simulation
! Run Control: Annual simulation
!
! Building: Idealized approximation of simple residential building with basement
! Floor Area: 100 m2 per floor
! Number of Stories: 2, one below ground
!
! Zone Description Details:
! Internal gains description: None, disabled as the feature of this input file
! is the foundation heat exchanger operation, not zone simulation.
! Interzone Surfaces: The surface separating the main floor from the basement
! is an unentered interzone surface.
! Internal Mass: None
! People: None
! Lights: None
! Windows: None
! Detached Shading: None
! Daylight: None
! Natural Ventilation: None
! Compact Schedules (preferred): Yes
! Solar Distribution: FullInteriorAndExterior
!
! HVAC: Ideal air system
! Purchased Air: No
! Zonal Equipment: No
! Central Air Handling Equipment: No
! System Equipment Autosize: No
! Purchased Cooling: No
! Purchased Heating: No
! Coils: No
! Pumps: No
! Boilers: No
! Chillers: No
! Towers: No
!
! Results: Standard hourly variables for zone.
! Standard Reports: No
! Timestep or Hourly Variables: Hourly
! Time bins Report: No
! HTML Report: Yes
! Environmental Emissions: No
! Utility Tariffs: No
!***********************************************************
!****** SIMULATION CONTROLS ********************************
!***********************************************************

  Version,24.1;

!- =========== ALL OBJECTS IN CLASS: SIMULATIONCONTROL ===========

  SimulationControl,
    No,                      !- Do Zone Sizing Calculation
    No,                      !- Do System Sizing Calculation
    NO,                      !- Do Plant Sizing Calculation
    No,                      !- Run Simulation for Sizing Periods
    Yes,                     !- Run Simulation for Weather File Run Periods
    No,                      !- Do HVAC Sizing Simulation for Sizing Periods
    1;                       !- Maximum Number of HVAC Sizing Simulation Passes

!- =========== ALL OBJECTS IN CLASS: BUILDING ===========

  Building,
    Matts House,             !- Name
    0.0,                     !- North Axis {deg}
    Suburbs,                 !- Terrain
    0.05,                    !- Loads Convergence Tolerance Value {W}
    0.05,                    !- Temperature Convergence Tolerance Value {deltaC}
    FullInteriorAndExterior, !- Solar Distribution
    35,                      !- Maximum Number of Warmup Days
    6;                       !- Minimum Number of Warmup Days

!- =========== ALL OBJECTS IN CLASS: TIMESTEP ===========

  Timestep,4;

!- =========== ALL OBJECTS IN CLASS: SITE:LOCATION ===========
!***********************************************************
!****** LOCATION SPECIFIC OBJECTS **************************
!***********************************************************

  Site:Location,
    Denver Centennial  Golden   N_CO_USA Design_Conditions,  !- Name
    39.74,                   !- Latitude {deg}
    -105.18,                 !- Longitude {deg}
    -7.00,                   !- Time Zone {hr}
    1829.00;                 !- Elevation {m}

!- =========== ALL OBJECTS IN CLASS: SIZINGPERIOD:DESIGNDAY ===========
 ! Denver Centennial  Golden   N_CO_USA Annual Heating Design Conditions Wind Speed=3m/s Wind Dir=340
 ! Coldest Month=DEC
 ! Denver Centennial  Golden   N_CO_USA Annual Heating 99.6%, MaxDB=-18.8°C

  SizingPeriod:DesignDay,
    Denver Centennial  Golden   N Ann Htg 99.6% Condns DB,  !- Name
    12,                      !- Month
    21,                      !- Day of Month
    WinterDesignDay,         !- Day Type
    -18.8,                   !- Maximum Dry-Bulb Temperature {C}
    0.0,                     !- Daily Dry-Bulb Temperature Range {deltaC}
    DefaultMultipliers,      !- Dry-Bulb Temperature Range Modifier Type
    ,                        !- Dry-Bulb Temperature Range Modifier Day Schedule Name
    Wetbulb,                 !- Humidity Condition Type
    -18.8,                   !- Wetbulb or DewPoint at Maximum Dry-Bulb {C}
    ,                        !- Humidity Condition Day Schedule Name
    ,                        !- Humidity Ratio at Maximum Dry-Bulb {kgWater/kgDryAir}
    ,                        !- Enthalpy at Maximum Dry-Bulb {J/kg}
    ,                        !- Daily Wet-Bulb Temperature Range {deltaC}
    81198.,                  !- Barometric Pressure {Pa}
    3,                       !- Wind Speed {m/s}
    340,                     !- Wind Direction {deg}
    No,                      !- Rain Indicator
    No,                      !- Snow Indicator
    No,                      !- Daylight Saving Time Indicator
    ASHRAEClearSky,          !- Solar Model Indicator
    ,                        !- Beam Solar Day Schedule Name
    ,                        !- Diffuse Solar Day Schedule Name
    ,                        !- ASHRAE Clear Sky Optical Depth for Beam Irradiance (taub) {dimensionless}
    ,                        !- ASHRAE Clear Sky Optical Depth for Diffuse Irradiance (taud) {dimensionless}
    0.00;                    !- Sky Clearness

 ! Denver Centennial  Golden   N Annual Cooling Design Conditions Wind Speed=4.9m/s Wind Dir=0
 ! Hottest Month=JUL
 ! Denver Centennial  Golden   N_CO_USA Annual Cooling (DB=>MWB) .4%, MaxDB=33°C MWB=15.7°C

  SizingPeriod:DesignDay,
    Denver Centennial  Golden   N Ann Clg .4% Condns DB=>MWB,  !- Name
    7,                       !- Month
    21,                      !- Day of Month
    SummerDesignDay,         !- Day Type
    33,                      !- Maximum Dry-Bulb Temperature {C}
    15.2,                    !- Daily Dry-Bulb Temperature Range {deltaC}
    DefaultMultipliers,      !- Dry-Bulb Temperature Range Modifier Type
    ,                        !- Dry-Bulb Temperature Range Modifier Day Schedule Name
    Wetbulb,                 !- Humidity Condition Type
    15.7,                    !- Wetbulb or DewPoint at Maximum Dry-Bulb {C}
    ,                        !- Humidity Condition Day Schedule Name
    ,                        !- Humidity Ratio at Maximum Dry-Bulb {kgWater/kgDryAir}
    ,                        !- Enthalpy at Maximum Dry-Bulb {J/kg}
    ,                        !- Daily Wet-Bulb Temperature Range {deltaC}
    81198.,                  !- Barometric Pressure {Pa}
    4.9,                     !- Wind Speed {m/s}
    0,                       !- Wind Direction {deg}
    No,                      !- Rain Indicator
    No,                      !- Snow Indicator
    No,                      !- Daylight Saving Time Indicator
    ASHRAETau,               !- Solar Model Indicator
    ,                        !- Beam Solar Day Schedule Name
    ,                        !- Diffuse Solar Day Schedule Name
    0.424,                   !- ASHRAE Clear Sky Optical Depth for Beam Irradiance (taub) {dimensionless}
    2.025;                   !- ASHRAE Clear Sky Optical Depth for Diffuse Irradiance (taud) {dimensionless}

!- =========== ALL OBJECTS IN CLASS: RUNPERIOD ===========

  RunPeriod,
    Annual Run,              !- Name
    1,                       !- Begin Month
    1,                       !- Begin Day of Month
    ,                        !- Begin Year
    12,                      !- End Month
    31,                      !- End Day of Month
    ,                        !- End Year
    Tuesday,                 !- Day of Week for Start Day
    Yes,                     !- Use Weather File Holidays and Special Days
    Yes,                     !- Use Weather File Daylight Saving Period
    No,                      !- Apply Weekend Holiday Rule
    Yes,                     !- Use Weather File Rain Indicators
    Yes;                     !- Use Weather File Snow Indicators

!***********************************************************
!****** BASEMENT ZONE SPECIFICATION ************************
!***********************************************************

  Zone,
    Basement,                !- Name
    0,                       !- Direction of Relative North {deg}
    0,                       !- X Origin {m}
    0,                       !- Y Origin {m}
    0,                       !- Z Origin {m}
    ,                        !- Type
    ,                        !- Multiplier
    autocalculate,           !- Ceiling Height {m}
    autocalculate,           !- Volume {m3}
    autocalculate,           !- Floor Area {m2}
    Simple,                  !- Zone Inside Convection Algorithm
    SimpleCombined,          !- Zone Outside Convection Algorithm
    Yes;                     !- Part of Total Floor Area

  BuildingSurface:Detailed,
    Basement Wall 1,         !- Name
    Wall,                    !- Surface Type
    Basement Wall Construction,  !- Construction Name
    Basement,                !- Zone Name
    ,                        !- Space Name
    OtherSideConditionsModel,!- Outside Boundary Condition
    BasementWallOSCM,        !- Outside Boundary Condition Object
    NoSun,                   !- Sun Exposure
    NoWind,                  !- Wind Exposure
    autocalculate,           !- View Factor to Ground
    4,                       !- Number of Vertices
    10.0,10.0,0.0,  !- X,Y,Z ==> Vertex 1 {m}
    10.0,10.0,-3.1,  !- X,Y,Z ==> Vertex 2 {m}
    0.0,10.0,-3.1,  !- X,Y,Z ==> Vertex 3 {m}
    0.0,10.0,0.0;  !- X,Y,Z ==> Vertex 4 {m}

  BuildingSurface:Detailed,
    Basement Wall 2,         !- Name
    Wall,                    !- Surface Type
    Basement Wall Construction,  !- Construction Name
    Basement,                !- Zone Name
    ,                        !- Space Name
    OtherSideConditionsModel,!- Outside Boundary Condition
    BasementWallOSCM,        !- Outside Boundary Condition Object
    NoSun,                   !- Sun Exposure
    NoWind,                  !- Wind Exposure
    autocalculate,           !- View Factor to Ground
    4,                       !- Number of Vertices
    0.0,0.0,0.0,  !- X,Y,Z ==> Vertex 1 {m}
    0.0,0.0,-3.1,  !- X,Y,Z ==> Vertex 2 {m}
    10.0,0.0,-3.1,  !- X,Y,Z ==> Vertex 3 {m}
    10.0,0.0,0.0;  !- X,Y,Z ==> Vertex 4 {m}

  BuildingSurface:Detailed,
    Basement Wall 3,         !- Name
    Wall,                    !- Surface Type
    Basement Wall Construction,  !- Construction Name
    Basement,                !- Zone Name
    ,                        !- Space Name
    OtherSideConditionsModel,!- Outside Boundary Condition
    BasementWallOSCM,        !- Outside Boundary Condition Object
    NoSun,                   !- Sun Exposure
    NoWind,                  !- Wind Exposure
    autocalculate,           !- View Factor to Ground
    4,                       !- Number of Vertices
    10.0,0.0,0.0,  !- X,Y,Z ==> Vertex 1 {m}
    10.0,0.0,-3.1,  !- X,Y,Z ==> Vertex 2 {m}
    10.0,10.0,-3.1,  !- X,Y,Z ==> Vertex 3 {m}
    10.0,10.0,0.0;  !- X,Y,Z ==> Vertex 4 {m}

  BuildingSurface:Detailed,
    Basement Wall 4,         !- Name
    Wall,                    !- Surface Type
    Basement Wall Construction,  !- Construction Name
    Basement,                !- Zone Name
    ,                        !- Space Name
    OtherSideConditionsModel,!- Outside Boundary Condition
    BasementWallOSCM,        !- Outside Boundary Condition Object
    NoSun,                   !- Sun Exposure
    NoWind,                  !- Wind Exposure
    autocalculate,           !- View Factor to Ground
    4,                       !- Number of Vertices
    0.0,10.0,0.0,  !- X,Y,Z ==> Vertex 1 {m}
    0.0,10.0,-3.1,  !- X,Y,Z ==> Vertex 2 {m}
    0.0,0.0,-3.1,  !- X,Y,Z ==> Vertex 3 {m}
    0.0,0.0,0.0;  !- X,Y,Z ==> Vertex 4 {m}

  BuildingSurface:Detailed,
    Basement Floor,          !- Name
    Floor,                   !- Surface Type
    Basement Floor Construction,  !- Construction Name
    Basement,                !- Zone Name
    ,                        !- Space Name
    OtherSideConditionsModel,!- Outside Boundary Condition
    BasementFloorOSCM,       !- Outside Boundary Condition Object
    NoSun,                   !- Sun Exposure
    NoWind,                  !- Wind Exposure
    autocalculate,           !- View Factor to Ground
    4,                       !- Number of Vertices
    10.0,10.0,-3.1,  !- X,Y,Z ==> Vertex 1 {m}
    10.0,0.0,-3.1,  !- X,Y,Z ==> Vertex 2 {m}
    0.0,0.0,-3.1,  !- X,Y,Z ==> Vertex 3 {m}
    0.0,10.0,-3.1;  !- X,Y,Z ==> Vertex 4 {m}

  BuildingSurface:Detailed,
    Basement Ceiling,        !- Name
    Ceiling,                 !- Surface Type
    Ceiling Construction,    !- Construction Name
    Basement,                !- Zone Name
    ,                        !- Space Name
    Zone,                    !- Outside Boundary Condition
    Main Floor,              !- Outside Boundary Condition Object
    NoSun,                   !- Sun Exposure
    NoWind,                  !- Wind Exposure
    autocalculate,           !- View Factor to Ground
    4,                       !- Number of Vertices
    0.0,10.0,0.0,  !- X,Y,Z ==> Vertex 1 {m}
    0.0,0.0,0.0,  !- X,Y,Z ==> Vertex 2 {m}
    10.0,0.0,0.0,  !- X,Y,Z ==> Vertex 3 {m}
    10.0,10.0,0.0;  !- X,Y,Z ==> Vertex 4 {m}

  SurfaceProperty:OtherSideConditionsModel,
    BasementWallOSCM,        !- Name
    UndergroundPipingSystemSurface;  !- Type of Modeling

  SurfaceProperty:OtherSideConditionsModel,
    BasementFloorOSCM,       !- Name
    UndergroundPipingSystemSurface;  !- Type of Modeling

!***********************************************************
!****** ABOVE GROUND ZONE SPECIFICATION ********************
!***********************************************************

  Zone,
    Main Floor,              !- Name
    0,                       !- Direction of Relative North {deg}
    0,                       !- X Origin {m}
    0,                       !- Y Origin {m}
    0,                       !- Z Origin {m}
    ,                        !- Type
    ,                        !- Multiplier
    autocalculate,           !- Ceiling Height {m}
    autocalculate,           !- Volume {m3}
    autocalculate,           !- Floor Area {m2}
    Simple,                  !- Zone Inside Convection Algorithm
    SimpleCombined,          !- Zone Outside Convection Algorithm
    Yes;                     !- Part of Total Floor Area

  BuildingSurface:Detailed,
    Main Floor Wall 1,       !- Name
    Wall,                    !- Surface Type
    Main Floor Wall Construction,  !- Construction Name
    Main Floor,              !- Zone Name
    ,                        !- Space Name
    Outdoors,                !- Outside Boundary Condition
    ,                        !- Outside Boundary Condition Object
    SunExposed,              !- Sun Exposure
    WindExposed,             !- Wind Exposure
    autocalculate,           !- View Factor to Ground
    4,                       !- Number of Vertices
    10.0,10.0,3.1,  !- X,Y,Z ==> Vertex 1 {m}
    10.0,10.0,0.0,  !- X,Y,Z ==> Vertex 2 {m}
    0.0,10.0,0.0,  !- X,Y,Z ==> Vertex 3 {m}
    0.0,10.0,3.1;  !- X,Y,Z ==> Vertex 4 {m}

  BuildingSurface:Detailed,
    Main Floor Wall 2,       !- Name
    Wall,                    !- Surface Type
    Main Floor Wall Construction,  !- Construction Name
    Main Floor,              !- Zone Name
    ,                        !- Space Name
    Outdoors,                !- Outside Boundary Condition
    ,                        !- Outside Boundary Condition Object
    SunExposed,              !- Sun Exposure
    WindExposed,             !- Wind Exposure
    autocalculate,           !- View Factor to Ground
    4,                       !- Number of Vertices
    0.0,0.0,3.1,  !- X,Y,Z ==> Vertex 1 {m}
    0.0,0.0,0.0,  !- X,Y,Z ==> Vertex 2 {m}
    10.0,0.0,0.0,  !- X,Y,Z ==> Vertex 3 {m}
    10.0,0.0,3.1;  !- X,Y,Z ==> Vertex 4 {m}

  BuildingSurface:Detailed,
    Main Floor Wall 3,       !- Name
    Wall,                    !- Surface Type
    Main Floor Wall Construction,  !- Construction Name
    Main Floor,              !- Zone Name
    ,                        !- Space Name
    Outdoors,                !- Outside Boundary Condition
    ,                        !- Outside Boundary Condition Object
    SunExposed,              !- Sun Exposure
    WindExposed,             !- Wind Exposure
    autocalculate,           !- View Factor to Ground
    4,                       !- Number of Vertices
    10.0,0.0,3.1,  !- X,Y,Z ==> Vertex 1 {m}
    10.0,0.0,0.0,  !- X,Y,Z ==> Vertex 2 {m}
    10.0,10.0,0.0,  !- X,Y,Z ==> Vertex 3 {m}
    10.0,10.0,3.1;  !- X,Y,Z ==> Vertex 4 {m}

  BuildingSurface:Detailed,
    Main Floor Wall 4,       !- Name
    Wall,                    !- Surface Type
    Main Floor Wall Construction,  !- Construction Name
    Main Floor,              !- Zone Name
    ,                        !- Space Name
    Outdoors,                !- Outside Boundary Condition
    ,                        !- Outside Boundary Condition Object
    SunExposed,              !- Sun Exposure
    WindExposed,             !- Wind Exposure
    autocalculate,           !- View Factor to Ground
    4,                       !- Number of Vertices
    0.0,10.0,3.1,  !- X,Y,Z ==> Vertex 1 {m}
    0.0,10.0,0.0,  !- X,Y,Z ==> Vertex 2 {m}
    0.0,0.0,0.0,  !- X,Y,Z ==> Vertex 3 {m}
    0.0,0.0,3.1;  !- X,Y,Z ==> Vertex 4 {m}

  BuildingSurface:Detailed,
    Main Floor Roof,         !- Name
    Roof,                    !- Surface Type
    Roof Construction,       !- Construction Name
    Main Floor,              !- Zone Name
    ,                        !- Space Name
    Outdoors,                !- Outside Boundary Condition
    ,                        !- Outside Boundary Condition Object
    SunExposed,              !- Sun Exposure
    WindExposed,             !- Wind Exposure
    autocalculate,           !- View Factor to Ground
    4,                       !- Number of Vertices
    0.0,10.0,3.1,  !- X,Y,Z ==> Vertex 1 {m}
    0.0,0.0,3.1,  !- X,Y,Z ==> Vertex 2 {m}
    10.0,0.0,3.1,  !- X,Y,Z ==> Vertex 3 {m}
    10.0,10.0,3.1;  !- X,Y,Z ==> Vertex 4 {m}

!- =========== ALL OBJECTS IN CLASS: CONSTRUCTION ===========
!***********************************************************
!****** ABOVE-GROUND MATERIALS/CONSTRUCTIONS ***************
!***********************************************************
! ASHRAE 1145-RP Wall Assembly 2
! 2"x6" wood studs at 24" on center with between-stud R19 fibreglass insulation.
! Layers are 1/2" wood siding, 1/2" plywood, 2x6 wood studs and R19 insulation, 1/2" gypsum board.
! Area-average R-Value = 17.487 ft2-F-h/Btu (3.078 m2-K/W).
! Total wall thickness = 7.00in (0.178m)
! Material layer names follow:

  Construction,
    Main Floor Wall Construction,  !- Name
    Composite 2x6 Wood Stud R19 #3,  !- Outside Layer
    Composite 2x6 Wood Stud R19 #2,  !- Layer 2
    Composite 2x6 Wood Stud R19 #1;  !- Layer 3

  Material,
    Composite 2x6 Wood Stud R19 #1,  !- Name
    Smooth,                  !- Roughness
    0.019,                   !- Thickness {m}
    0.137,                   !- Conductivity {W/m-K}
    640.0,                   !- Density {kg/m3}
    1006,                    !- Specific Heat {J/kg-K}
    0.9,                     !- Thermal Absorptance
    0.7,                     !- Solar Absorptance
    0.7;                     !- Visible Absorptance

  Material,
    Composite 2x6 Wood Stud R19 #2,  !- Name
    Smooth,                  !- Roughness
    0.133,                   !- Thickness {m}
    0.047,                   !- Conductivity {W/m-K}
    93.84,                   !- Density {kg/m3}
    1006,                    !- Specific Heat {J/kg-K}
    0.9,                     !- Thermal Absorptance
    0.7,                     !- Solar Absorptance
    0.7;                     !- Visible Absorptance

  Material,
    Composite 2x6 Wood Stud R19 #3,  !- Name
    Smooth,                  !- Roughness
    0.025,                   !- Thickness {m}
    0.246,                   !- Conductivity {W/m-K}
    492.67,                  !- Density {kg/m3}
    1006,                    !- Specific Heat {J/kg-K}
    0.9,                     !- Thermal Absorptance
    0.7,                     !- Solar Absorptance
    0.7;                     !- Visible Absorptance

!***********************************************************
!********* BASEMENT SURFACE MATERIALS/CONSTRUCTIONS ***********
!***********************************************************

  Material,
    Basement Floor Material, !- Name
    MediumRough,             !- Roughness
    0.1,                     !- Thickness {m}
    1.805,                   !- Conductivity {W/m-K}
    2243,                    !- Density {kg/m3}
    837,                     !- Specific Heat {J/kg-K}
    0.9,                     !- Thermal Absorptance
    0.65,                    !- Solar Absorptance
    0.65;                    !- Visible Absorptance

  Material,
    Basement Wall Material,  !- Name
    MediumRough,             !- Roughness
    0.1,                     !- Thickness {m}
    1.802,                   !- Conductivity {W/m-K}
    2243,                    !- Density {kg/m3}
    837,                     !- Specific Heat {J/kg-K}
    0.9,                     !- Thermal Absorptance
    0.65,                    !- Solar Absorptance
    0.65;                    !- Visible Absorptance

  Construction,
    Basement Floor Construction,  !- Name
    Basement Floor Material; !- Outside Layer

  Construction,
    Basement Wall Construction,  !- Name
    Basement Wall Material;  !- Outside Layer

  Material,
    Basement Insulation,     !- Name
    Smooth,                  !- Roughness
    0.0254,                  !- Thickness {m}
    0.035,                   !- Conductivity {W/m-K}
    265,                     !- Density {kg/m3}
    1300,                    !- Specific Heat {J/kg-K}
    0.9,                     !- Thermal Absorptance
    0.65,                    !- Solar Absorptance
    0.65;                    !- Visible Absorptance

!***********************************************************
!****** ROOF MATERIALS/CONSTRUCTIONS ***********************
!***********************************************************

  Construction,
    Roof Construction,       !- Name
    Roof Layer 1;            !- Outside Layer

  Material:NoMass,
    Roof Layer 1,            !- Name
    Rough,                   !- Roughness
    3.344,                   !- Thermal Resistance {m2-K/W}
    0.9000000,               !- Thermal Absorptance
    0.7500000,               !- Solar Absorptance
    0.7500000;               !- Visible Absorptance

!***********************************************************
!****** BASEMENT CEILING MATLS/CONSTRUCTIONS ***************
!***********************************************************

  Construction,
    Ceiling Construction,    !- Name
    Ceiling Layer 1;         !- Outside Layer

  Material,
    Ceiling Layer 1,         !- Name
    Rough,                   !- Roughness
    0.1,                     !- Thickness {m}
    12.3,                    !- Conductivity {W/m-K}
    800,                     !- Density {kg/m3}
    1300,                    !- Specific Heat {J/kg-K}
    0.9,                     !- Thermal Absorptance
    0.7,                     !- Solar Absorptance
    0.7;                     !- Visible Absorptance

!- =========== ALL OBJECTS IN CLASS: GLOBALGEOMETRYRULES ===========

  GlobalGeometryRules,
    UpperLeftCorner,         !- Starting Vertex Position
    CounterClockWise,        !- Vertex Entry Direction
    Relative;                !- Coordinate System

!***********************************************************
!************* GROUND/BASEMENT DOMAIN **************************
!***********************************************************

  Site:GroundDomain:Basement,
    CoupledBasement,         !- Name
    5,                       !- Ground Domain Depth {m}
    1,                       !- Aspect Ratio
    5,                       !- Perimeter Offset {m}
    1.8,                     !- Soil Thermal Conductivity {W/m-K}
    3200,                    !- Soil Density {kg/m3}
    836,                     !- Soil Specific Heat {J/kg-K}
    30,                      !- Soil Moisture Content Volume Fraction {percent}
    50,                      !- Soil Moisture Content Volume Fraction at Saturation {percent}
    Site:GroundTemperature:Undisturbed:KusudaAchenbach,  !- Undisturbed Ground Temperature Model Type
    KATemps,                 !- Undisturbed Ground Temperature Model Name
    0.5,                     !- Evapotranspiration Ground Cover Parameter
    BasementFloorOSCM,       !- Basement Floor Boundary Condition Model Name
    Yes,                     !- Horizontal Insulation
    Basement Insulation,     !- Horizontal Insulation Material Name
    Perimeter,               !- Horizontal Insulation Extents
    1,                       !- Perimeter Horizontal Insulation Width {m}
    2.5,                     !- Basement Wall Depth {m}
    BasementWallOSCM,        !- Basement Wall Boundary Condition Model Name
    Yes,                     !- Vertical Insulation
    Basement Insulation,     !- Basement Wall Vertical Insulation Material Name
    2.3,                     !- Vertical Insulation Depth {m}
    timestep;                !- Simulation Timestep

  Site:GroundTemperature:Undisturbed:KusudaAchenbach,
    KATemps,                 !- Name
    1.8,                     !- Soil Thermal Conductivity {W/m-K}
    3200,                    !- Soil Density {kg/m3}
    836,                     !- Soil Specific Heat {J/kg-K}
    15.5,                    !- Average Soil Surface Temperature {C}
    12.8,                    !- Average Amplitude of Surface Temperature {deltaC}
    17.3;                    !- Phase Shift of Minimum Surface Temperature {days}

!- =========== ALL OBJECTS IN CLASS: OUTPUT:VARIABLEDICTIONARY ===========

  Output:VariableDictionary,IDF;

  Output:Variable,*,GroundDomain Basement Wall Interface Heat Flux,hourly;

  Output:Variable,*,GroundDomain Basement Wall Interface Temperature,hourly;

  Output:Variable,*,GroundDomain Basement Floor Interface Heat Flux,hourly;

  Output:Variable,*,GroundDomain Basement Floor Interface Temperature,hourly;

!- =========== ALL OBJECTS IN CLASS: OUTPUT:TABLE:SUMMARYREPORTS ===========

  Output:Table:SummaryReports,
    AllSummary;              !- Report 1 Name

!- =========== ALL OBJECTS IN CLASS: OUTPUTCONTROL:TABLE:STYLE ===========

  OutputControl:Table:Style,
    HTML;                    !- Column Separator

!- =========== ALL OBJECTS IN CLASS: OUTPUT:VARIABLE ===========

  Output:Variable,*,Surface Other Side Conditions Modeled Convection Air Temperature,hourly;

  Output:Variable,*,Surface Other Side Conditions Modeled Convection Heat Transfer Coefficient,hourly;

  Output:Variable,*,Surface Other Side Conditions Modeled Radiation Temperature,hourly;

  Output:Variable,*,Surface Other Side Conditions Modeled Radiation Heat Transfer Coefficient,hourly;

  Output:Variable,*,Surface Average Face Conduction Heat Transfer Rate per Area,hourly;

  Output:Variable,*,Zone Air Temperature,hourly;

  Output:Variable,*,Zone Air System Sensible Heating Rate,hourly;

  Output:Variable,*,Zone Air System Sensible Cooling Rate,hourly;

  ScheduleTypeLimits,
    HVACTemplate Any Number; !- Name

  Schedule:Compact,
    HVACTemplate-Always 21,  !- Name
    HVACTemplate Any Number, !- Schedule Type Limits Name
    Through: 12/31,          !- Field 1
    For: AllDays,            !- Field 2
    Until: 24:00,21;         !- Field 3

  ThermostatSetpoint:DualSetpoint,
    Always21 Dual SP Control,!- Name
    HVACTemplate-Always 21,  !- Heating Setpoint Temperature Schedule Name
    HVACTemplate-Always 21;  !- Cooling Setpoint Temperature Schedule Name

  Schedule:Compact,
    HVACTemplate-Always 4,   !- Name
    HVACTemplate Any Number, !- Schedule Type Limits Name
    Through: 12/31,          !- Field 1
    For: AllDays,            !- Field 2
    Until: 24:00,4;          !- Field 3

  ZoneControl:Thermostat,
    Main Floor Thermostat,   !- Name
    Main Floor,              !- Zone or ZoneList Name
    HVACTemplate-Always 4,   !- Control Type Schedule Name
    ThermostatSetpoint:DualSetpoint,  !- Control 1 Object Type
    Always21 Dual SP Control;!- Control 1 Name

  ZoneHVAC:EquipmentConnections,
    Main Floor,              !- Zone Name
    Main Floor Equipment,    !- Zone Conditioning Equipment List Name
    Main Floor Ideal Loads Supply Inlet,  !- Zone Air Inlet Node or NodeList Name
    ,                        !- Zone Air Exhaust Node or NodeList Name
    Main Floor Zone Air Node,!- Zone Air Node Name
    Main Floor Return Outlet;!- Zone Return Air Node or NodeList Name

  ZoneHVAC:EquipmentList,
    Main Floor Equipment,    !- Name
    SequentialLoad,          !- Load Distribution Scheme
    ZoneHVAC:IdealLoadsAirSystem,  !- Zone Equipment 1 Object Type
    Main Floor Ideal Loads Air System,  !- Zone Equipment 1 Name
    1,                       !- Zone Equipment 1 Cooling Sequence
    1,                       !- Zone Equipment 1 Heating or No-Load Sequence
    ,                        !- Zone Equipment 1 Sequential Cooling Fraction Schedule Name
    ;                        !- Zone Equipment 1 Sequential Heating Fraction Schedule Name

  ZoneHVAC:IdealLoadsAirSystem,
    Main Floor Ideal Loads Air System,  !- Name
    ,                        !- Availability Schedule Name