!-Generator IDFEditor 1.44
!-Option SortedOrder
!-NOTE: All comments with '!-' are ignored by the IDFEditor and are generated automatically.
!- Use '!' comments if they need to be retained when using the IDFEditor.
!- =========== ALL OBJECTS IN CLASS: VERSION ===========
! ZoneCoupledGroundHTSlabInGrade.idf
! Basic File Description:
! This input file exemplifies the use of the Site:GroundDomain:Slab
! object to perform the simulation of ground coupled heat transfer.
! Highlights: Simulate a heat transfer interaction with the slab
! Simulation Location/Run:
! Location: Chicago, IL
! Design Days SummerDesignDay and WinterDesignDay
! Run Period: Annual simulation
!
! Building: Idealized approximation of simple residential building
! Floor Area: 100 m2
! Number of Stories: 1
!
! Zone Description Details:
! Internal gains description: None, disabled as the feature of this input file
! is the ground coupled slab, not zone simulation.
! Interzone Surfaces: None
! Internal Mass: None
! People: None
! Lights: None
! Windows: None
! Detached Shading: None
! Daylight: None
! Natural Ventilation: None
! Solar Distribution: None
!
! HVAC: Ideal air system
! Purchased Air: No
! Central Air Handling Equipment: No
! System Equipment Autosize: Yes
! Purchased Cooling: No
! Purchased Heating: No
! Boilers: No
! Chillers: No
! Towers: No
!***********************************************************
!****** SIMULATION CONTROLS ********************************
!***********************************************************

  Version,24.1;

!- =========== ALL OBJECTS IN CLASS: SIMULATIONCONTROL ===========

  SimulationControl,
    No,                      !- Do Zone Sizing Calculation
    No,                      !- Do System Sizing Calculation
    NO,                      !- Do Plant Sizing Calculation
    No,                      !- Run Simulation for Sizing Periods
    Yes,                     !- Run Simulation for Weather File Run Periods
    No,                      !- Do HVAC Sizing Simulation for Sizing Periods
    1;                       !- Maximum Number of HVAC Sizing Simulation Passes

!- =========== ALL OBJECTS IN CLASS: BUILDING ===========

  Building,
    House,                   !- Name
    0.0,                     !- North Axis {deg}
    Suburbs,                 !- Terrain
    0.05,                    !- Loads Convergence Tolerance Value {W}
    0.05,                    !- Temperature Convergence Tolerance Value {deltaC}
    FullInteriorAndExterior, !- Solar Distribution
    35,                      !- Maximum Number of Warmup Days
    6;                       !- Minimum Number of Warmup Days

!- =========== ALL OBJECTS IN CLASS: TIMESTEP ===========

  Timestep,4;

!- =========== ALL OBJECTS IN CLASS: SITE:LOCATION ===========
!***********************************************************
!****** LOCATION SPECIFIC OBJECTS **************************
!***********************************************************

  Site:Location,
    Ohare Intl Ap IL USA TMY3 WMO#=725300,  !- Name
    41.98,                   !- Latitude {deg}
    -87.92,                  !- Longitude {deg}
    -6,                      !- Time Zone {hr}
    201.0;                   !- Elevation {m}

!- =========== ALL OBJECTS IN CLASS: SIZINGPERIOD:DESIGNDAY ===========

  SizingPeriod:DesignDay,
    Chicago Ohare Intl Ap Ann Htg 99% Condns DB,  !- Name
    1,                       !- Month
    21,                      !- Day of Month
    WinterDesignDay,         !- Day Type
    -16.6,                   !- Maximum Dry-Bulb Temperature {C}
    0.0,                     !- Daily Dry-Bulb Temperature Range {deltaC}
    ,                        !- Dry-Bulb Temperature Range Modifier Type
    ,                        !- Dry-Bulb Temperature Range Modifier Day Schedule Name
    Wetbulb,                 !- Humidity Condition Type
    -16.6,                   !- Wetbulb or DewPoint at Maximum Dry-Bulb {C}
    ,                        !- Humidity Condition Day Schedule Name
    ,                        !- Humidity Ratio at Maximum Dry-Bulb {kgWater/kgDryAir}
    ,                        !- Enthalpy at Maximum Dry-Bulb {J/kg}
    ,                        !- Daily Wet-Bulb Temperature Range {deltaC}
    98886.,                  !- Barometric Pressure {Pa}
    4.9,                     !- Wind Speed {m/s}
    270,                     !- Wind Direction {deg}
    No,                      !- Rain Indicator
    No,                      !- Snow Indicator
    No,                      !- Daylight Saving Time Indicator
    ASHRAEClearSky,          !- Solar Model Indicator
    ,                        !- Beam Solar Day Schedule Name
    ,                        !- Diffuse Solar Day Schedule Name
    ,                        !- ASHRAE Clear Sky Optical Depth for Beam Irradiance (taub) {dimensionless}
    ,                        !- ASHRAE Clear Sky Optical Depth for Diffuse Irradiance (taud) {dimensionless}
    0.00;                    !- Sky Clearness

  SizingPeriod:DesignDay,
    Chicago Ohare Intl Ap Ann Clg 1% Condns DB=>MWB,  !- Name
    7,                       !- Month
    21,                      !- Day of Month
    SummerDesignDay,         !- Day Type
    31.6,                    !- Maximum Dry-Bulb Temperature {C}
    10.5,                    !- Daily Dry-Bulb Temperature Range {deltaC}
    ,                        !- Dry-Bulb Temperature Range Modifier Type
    ,                        !- Dry-Bulb Temperature Range Modifier Day Schedule Name
    Wetbulb,                 !- Humidity Condition Type
    23,                      !- Wetbulb or DewPoint at Maximum Dry-Bulb {C}
    ,                        !- Humidity Condition Day Schedule Name
    ,                        !- Humidity Ratio at Maximum Dry-Bulb {kgWater/kgDryAir}
    ,                        !- Enthalpy at Maximum Dry-Bulb {J/kg}
    ,                        !- Daily Wet-Bulb Temperature Range {deltaC}
    98886.,                  !- Barometric Pressure {Pa}
    5.2,                     !- Wind Speed {m/s}
    230,                     !- Wind Direction {deg}
    No,                      !- Rain Indicator
    No,                      !- Snow Indicator
    No,                      !- Daylight Saving Time Indicator
    ASHRAEClearSky,          !- Solar Model Indicator
    ,                        !- Beam Solar Day Schedule Name
    ,                        !- Diffuse Solar Day Schedule Name
    ,                        !- ASHRAE Clear Sky Optical Depth for Beam Irradiance (taub) {dimensionless}
    ,                        !- ASHRAE Clear Sky Optical Depth for Diffuse Irradiance (taud) {dimensionless}
    1.00;                    !- Sky Clearness

!- =========== ALL OBJECTS IN CLASS: RUNPERIOD ===========

  RunPeriod,
    Annual Run,              !- Name
    1,                       !- Begin Month
    1,                       !- Begin Day of Month
    ,                        !- Begin Year
    12,                      !- End Month
    31,                      !- End Day of Month
    ,                        !- End Year
    Tuesday,                 !- Day of Week for Start Day
    Yes,                     !- Use Weather File Holidays and Special Days
    Yes,                     !- Use Weather File Daylight Saving Period
    No,                      !- Apply Weekend Holiday Rule
    Yes,                     !- Use Weather File Rain Indicators
    Yes;                     !- Use Weather File Snow Indicators

!- =========== ALL OBJECTS IN CLASS: MATERIAL ===========

  Material,
    Composite 2x6 Wood Stud R19 #1,  !- Name
    Smooth,                  !- Roughness
    0.019,                   !- Thickness {m}
    0.137,                   !- Conductivity {W/m-K}
    640.0,                   !- Density {kg/m3}
    1006,                    !- Specific Heat {J/kg-K}
    0.9,                     !- Thermal Absorptance
    0.7,                     !- Solar Absorptance
    0.7;                     !- Visible Absorptance

  Material,
    Composite 2x6 Wood Stud R19 #2,  !- Name
    Smooth,                  !- Roughness
    0.133,                   !- Thickness {m}
    0.047,                   !- Conductivity {W/m-K}
    93.84,                   !- Density {kg/m3}
    1006,                    !- Specific Heat {J/kg-K}
    0.9,                     !- Thermal Absorptance
    0.7,                     !- Solar Absorptance
    0.7;                     !- Visible Absorptance

  Material,
    Composite 2x6 Wood Stud R19 #3,  !- Name
    Smooth,                  !- Roughness
    0.025,                   !- Thickness {m}
    0.246,                   !- Conductivity {W/m-K}
    492.67,                  !- Density {kg/m3}
    1006,                    !- Specific Heat {J/kg-K}
    0.9,                     !- Thermal Absorptance
    0.7,                     !- Solar Absorptance
    0.7;                     !- Visible Absorptance

!***********************************************************
!********* FLOOR SURFACE AND SUB-SURFACE MATERIALS/CONSTRUCTIONS ***********
!***********************************************************

  Material,
    Slab Material-Top Layer, !- Name
    MediumRough,             !- Roughness
    0.0127,                  !- Thickness {m}
    1.8,                     !- Conductivity {W/m-K}
    2400,                    !- Density {kg/m3}
    750,                     !- Specific Heat {J/kg-K}
    0.9,                     !- Thermal Absorptance
    0.65,                    !- Solar Absorptance
    0.65;                    !- Visible Absorptance

  Material,
    Slab Material-In-grade,  !- Name
    MediumRough,             !- Roughness
    0.1397,                  !- Thickness {m}
    1.8,                     !- Conductivity {W/m-K}
    2400,                    !- Density {kg/m3}
    750,                     !- Specific Heat {J/kg-K}
    0.9,                     !- Thermal Absorptance
    0.65,                    !- Solar Absorptance
    0.65;                    !- Visible Absorptance

  Material,
    Insulation,              !- Name
    Smooth,                  !- Roughness
    0.0254,                  !- Thickness {m}
    0.035,                   !- Conductivity {W/m-K}
    265,                     !- Density {kg/m3}
    1300,                    !- Specific Heat {J/kg-K}
    0.9,                     !- Thermal Absorptance
    0.65,                    !- Solar Absorptance
    0.65;                    !- Visible Absorptance

!- =========== ALL OBJECTS IN CLASS: MATERIAL:NOMASS ===========

  Material:NoMass,
    Roof Layer 1,            !- Name
    Rough,                   !- Roughness
    3.344,                   !- Thermal Resistance {m2-K/W}
    0.9000000,               !- Thermal Absorptance
    0.7500000,               !- Solar Absorptance
    0.7500000;               !- Visible Absorptance

!- =========== ALL OBJECTS IN CLASS: CONSTRUCTION ===========

  Construction,
    Floor Construction,      !- Name
    Slab Material-Top Layer; !- Outside Layer

  Construction,
    Roof Construction,       !- Name
    Roof Layer 1;            !- Outside Layer

!***********************************************************
!****** ABOVE-GROUND MATERIALS/CONSTRUCTIONS ***************
!***********************************************************
! ASHRAE 1145-RP Wall Assembly 2
! 2"x6" wood studs at 24" on center with between-stud R19 fibreglass insulation.
! Layers are 1/2" wood siding, 1/2" plywood, 2x6 wood studs and R19 insulation, 1/2" gypsum board.
! Area-average R-Value = 17.487 ft2-F-h/Btu (3.078 m2-K/W).
! Total wall thickness = 7.00in (0.178m)
! Material layer names follow:

  Construction,
    Main Floor Wall Construction,  !- Name
    Composite 2x6 Wood Stud R19 #3,  !- Outside Layer
    Composite 2x6 Wood Stud R19 #2,  !- Layer 2
    Composite 2x6 Wood Stud R19 #1;  !- Layer 3

!- =========== ALL OBJECTS IN CLASS: GLOBALGEOMETRYRULES ===========

  GlobalGeometryRules,
    UpperLeftCorner,         !- Starting Vertex Position
    CounterClockWise,        !- Vertex Entry Direction
    Relative;                !- Coordinate System

!- =========== ALL OBJECTS IN CLASS: ZONE ===========
!***********************************************************
!****** ABOVE GROUND ZONE SPECIFICATION ********************
!***********************************************************

  Zone,
    Main Floor,              !- Name
    0,                       !- Direction of Relative North {deg}
    0,                       !- X Origin {m}
    0,                       !- Y Origin {m}
    0,                       !- Z Origin {m}
    ,                        !- Type
    ,                        !- Multiplier
    autocalculate,           !- Ceiling Height {m}
    autocalculate,           !- Volume {m3}
    autocalculate,           !- Floor Area {m2}
    Simple,                  !- Zone Inside Convection Algorithm
    SimpleCombined,          !- Zone Outside Convection Algorithm
    Yes;                     !- Part of Total Floor Area

!- =========== ALL OBJECTS IN CLASS: BUILDINGSURFACE:DETAILED ===========

  BuildingSurface:Detailed,
    Main Floor Wall 1,       !- Name
    Wall,                    !- Surface Type
    Main Floor Wall Construction,  !- Construction Name
    Main Floor,              !- Zone Name
    ,                        !- Space Name
    Outdoors,                !- Outside Boundary Condition
    ,                        !- Outside Boundary Condition Object
    SunExposed,              !- Sun Exposure
    WindExposed,             !- Wind Exposure
    autocalculate,           !- View Factor to Ground
    4,                       !- Number of Vertices
    10.0,10.0,3.1,  !- X,Y,Z ==> Vertex 1 {m}
    10.0,10.0,0.0,  !- X,Y,Z ==> Vertex 2 {m}
    0.0,10.0,0.0,  !- X,Y,Z ==> Vertex 3 {m}
    0.0,10.0,3.1;  !- X,Y,Z ==> Vertex 4 {m}

  BuildingSurface:Detailed,
    Main Floor Wall 2,       !- Name
    Wall,                    !- Surface Type
    Main Floor Wall Construction,  !- Construction Name
    Main Floor,              !- Zone Name
    ,                        !- Space Name
    Outdoors,                !- Outside Boundary Condition
    ,                        !- Outside Boundary Condition Object
    SunExposed,              !- Sun Exposure
    WindExposed,             !- Wind Exposure
    autocalculate,           !- View Factor to Ground
    4,                       !- Number of Vertices
    0.0,0.0,3.1,  !- X,Y,Z ==> Vertex 1 {m}
    0.0,0.0,0.0,  !- X,Y,Z ==> Vertex 2 {m}
    10.0,0.0,0.0,  !- X,Y,Z ==> Vertex 3 {m}
    10.0,0.0,3.1;  !- X,Y,Z ==> Vertex 4 {m}

  BuildingSurface:Detailed,
    Main Floor Wall 3,       !- Name
    Wall,                    !- Surface Type
    Main Floor Wall Construction,  !- Construction Name
    Main Floor,              !- Zone Name
    ,                        !- Space Name
    Outdoors,                !- Outside Boundary Condition
    ,                        !- Outside Boundary Condition Object
    SunExposed,              !- Sun Exposure
    WindExposed,             !- Wind Exposure
    autocalculate,           !- View Factor to Ground
    4,                       !- Number of Vertices
    10.0,0.0,3.1,  !- X,Y,Z ==> Vertex 1 {m}
    10.0,0.0,0.0,  !- X,Y,Z ==> Vertex 2 {m}
    10.0,10.0,0.0,  !- X,Y,Z ==> Vertex 3 {m}
    10.0,10.0,3.1;  !- X,Y,Z ==> Vertex 4 {m}

  BuildingSurface:Detailed,
    Main Floor Wall 4,       !- Name
    Wall,                    !- Surface Type
    Main Floor Wall Construction,  !- Construction Name
    Main Floor,              !- Zone Name
    ,                        !- Space Name
    Outdoors,                !- Outside Boundary Condition
    ,                        !- Outside Boundary Condition Object
    SunExposed,              !- Sun Exposure
    WindExposed,             !- Wind Exposure
    autocalculate,           !- View Factor to Ground
    4,                       !- Number of Vertices
    0.0,10.0,3.1,  !- X,Y,Z ==> Vertex 1 {m}
    0.0,10.0,0.0,  !- X,Y,Z ==> Vertex 2 {m}
    0.0,0.0,0.0,  !- X,Y,Z ==> Vertex 3 {m}
    0.0,0.0,3.1;  !- X,Y,Z ==> Vertex 4 {m}

  BuildingSurface:Detailed,
    Main Floor Roof,         !- Name
    Roof,                    !- Surface Type
    Roof Construction,       !- Construction Name
    Main Floor,              !- Zone Name
    ,                        !- Space Name
    Outdoors,                !- Outside Boundary Condition
    ,                        !- Outside Boundary Condition Object
    SunExposed,              !- Sun Exposure
    WindExposed,             !- Wind Exposure
    autocalculate,           !- View Factor to Ground
    4,                       !- Number of Vertices
    0.0,10.0,3.1,  !- X,Y,Z ==> Vertex 1 {m}
    0.0,0.0,3.1,  !- X,Y,Z ==> Vertex 2 {m}
    10.0,0.0,3.1,  !- X,Y,Z ==> Vertex 3 {m}
    10.0,10.0,3.1;  !- X,Y,Z ==> Vertex 4 {m}

  BuildingSurface:Detailed,
    Zone Floor,              !- Name
    Floor,                   !- Surface Type
    Floor Construction,      !- Construction Name
    Main Floor,              !- Zone Name
    ,                        !- Space Name
    OtherSideConditionsModel,!- Outside Boundary Condition
    GroundCoupledOSCM,       !- Outside Boundary Condition Object
    NoSun,                   !- Sun Exposure
    NoWind,                  !- Wind Exposure
    autocalculate,           !- View Factor to Ground
    4,                       !- Number of Vertices
    10.0,10.0,0.0,  !- X,Y,Z ==> Vertex 1 {m}
    10.0,0.0,0.0,  !- X,Y,Z ==> Vertex 2 {m}
    0.0,0.0,0.0,  !- X,Y,Z ==> Vertex 3 {m}
    0.0,10.0,0.0;  !- X,Y,Z ==> Vertex 4 {m}

!- =========== ALL OBJECTS IN CLASS: SURFACEPROPERTY:OTHERSIDECONDITIONSMODEL ===========

  SurfaceProperty:OtherSideConditionsModel,
    GroundCoupledOSCM,       !- Name
    GroundCoupledSurface;    !- Type of Modeling

!***********************************************************
!************* GROUND/SLAB DOMAIN **************************
!***********************************************************

  Site:GroundDomain:Slab,
    CoupledSlab,             !- Name
    5,                       !- Ground Domain Depth {m}
    1,                       !- Aspect Ratio
    5,                       !- Perimeter Offset {m}
    1.8,                     !- Soil Thermal Conductivity {W/m-K}
    3200,                    !- Soil Density {kg/m3}
    836,                     !- Soil Specific Heat {J/kg-K}
    30,                      !- Soil Moisture Content Volume Fraction {percent}
    50,                      !- Soil Moisture Content Volume Fraction at Saturation {percent}
    Site:GroundTemperature:Undisturbed:KusudaAchenbach,  !- Undisturbed Ground Temperature Model Type
    KATemps,                 !- Undisturbed Ground Temperature Model Name
    1,                       !- Evapotranspiration Ground Cover Parameter
    GroundCoupledOSCM,       !- Slab Boundary Condition Model Name
    InGrade,                 !- Slab Location
    Slab Material-In-grade,  !- Slab Material Name
    Yes,                     !- Horizontal Insulation
    Insulation,              !- Horizontal Insulation Material Name
    Full,                    !- Horizontal Insulation Extents
    ,                        !- Perimeter Insulation Width {m}
    Yes,                     !- Vertical Insulation
    Insulation,              !- Vertical Insulation Material Name
    1.5,                     !- Vertical Insulation Depth {m}
    Hourly,                  !- Simulation Timestep
    ,                        !- Geometric Mesh Coefficient
    ;                        !- Mesh Density Parameter

  Site:GroundTemperature:Undisturbed:KusudaAchenbach,
    KATemps,                 !- Name
    1.8,                     !- Soil Thermal Conductivity {W/m-K}
    3200,                    !- Soil Density {kg/m3}
    836,                     !- Soil Specific Heat {J/kg-K}
    15.5,                    !- Average Soil Surface Temperature {C}
    12.8,                    !- Average Amplitude of Surface Temperature {deltaC}
    17.3;                    !- Phase Shift of Minimum Surface Temperature {days}

!***********************************************************
!****** IDEAL AIR SYSTEM ************************************
!***********************************************************

  ScheduleTypeLimits,
    HVACTemplate Any Number; !- Name

  Schedule:Compact,
    HVACTemplate-Always 20,  !- Name
    HVACTemplate Any Number, !- Schedule Type Limits Name
    Through: 12/31,          !- Field 1
    For: AllDays,            !- Field 2
    Until: 24:00,20;         !- Field 3

  ThermostatSetpoint:DualSetpoint,
    Always21 Dual SP Control,!- Name
    HVACTemplate-Always 20,  !- Heating Setpoint Temperature Schedule Name
    HVACTemplate-Always 20;  !- Cooling Setpoint Temperature Schedule Name

  Schedule:Compact,
    HVACTemplate-Always 4,   !- Name
    HVACTemplate Any Number, !- Schedule Type Limits Name
    Through: 12/31,          !- Field 1
    For: AllDays,            !- Field 2
    Until: 24:00,4;          !- Field 3

  ZoneControl:Thermostat,
    Main Floor Thermostat,   !- Name
    Main Floor,              !- Zone or ZoneList Name
    HVACTemplate-Always 4,   !- Control Type Schedule Name
    ThermostatSetpoint:DualSetpoint,  !- Control 1 Object Type
    Always21 Dual SP Control;!- Control 1 Name

  ZoneHVAC:EquipmentConnections,
    Main Floor,              !- Zone Name
    Main Floor Equipment,    !- Zone Conditioning Equipment List Name
    Main Floor Ideal Loads Supply Inlet,  !- Zone Air Inlet Node or NodeList Name
    ,                        !- Zone Air Exhaust Node or NodeList Name
    Main Floor Zone Air Node,!- Zone Air Node Name
    Main Floor Return Outlet;!- Zone Return Air Node or NodeList Name

  ZoneHVAC:EquipmentList,
    Main Floor Equipment,    !- Name
    SequentialLoad,          !- Load Distribution Scheme
    ZoneHVAC:IdealLoadsAirSystem,  !- Zone Equipment 1 Object Type
    Main Floor Ideal Loads Air System,  !- Zone Equipment 1 Name
    1,                       !- Zone Equipment 1 Cooling Sequence
    1,                       !- Zone Equipment 1 Heating or No-Load Sequence
    ,                        !- Zone Equipment 1 Sequential Cooling Fraction Schedule Name
    ;                        !- Zone Equipment 1 Sequential Heating Fraction Schedule Name

  ZoneHVAC:IdealLoadsAirSystem,
    Main Floor Ideal Loads Air System,  !- Name
    ,                        !- Availability Schedule Name
    Main Floor Ideal Loads Supply Inlet,  !- Zone Supply Air Node Name
    ,                        !- Zone Exhaust Air Node Name
    ,                        !- System Inlet Air Node Name
    50,                      !- Maximum Heating Supply Air Temperature {C}
    13,                      !- Minimum Cooling Supply Air Temperature {C}
    0.0156,                  !- Maximum Heating Supply Air Humidity Ratio {kgWater/kgDryAir}
    0.0077,                  !- Minimum Cooling Supply Air Humidity Ratio {kgWater/kgDryAir}
    NoLimit,                 !- Heating Limit
    ,                        !- Maximum Heating Air Flow Rate {m3/s}
    ,                        !- Maximum Sensible Heating Capacity {W}
    NoLimit,                 !- Cooling Limit
    ,                        !- Maximum Cooling Air Flow Rate {m3/s}
    ,                        !- Maximum Total Cooling Capacity {W}
    ,                        !- Heating Availability Schedule Name
    ,                        !- Cooling Availability Schedule Name
    ConstantSensibleHeatRatio,  !- Dehumidification Control Type
    0.7,                     !- Cooling Sensible Heat Ratio {dimensionless}
    None,                    !- Humidification Control Type
    ,                        !- Design Specification Outdoor Air Object Name
    ,                        !- Outdoor Air Inlet Node Name
    None,                    !- Demand Controlled Ventilation Type
    NoEconomizer,            !- Outdoor Air Economizer Type
    None,                    !- Heat Recovery Type
    0.7,                     !- Sensible Heat Recovery Effectiveness {dimensionless}
    0.65;                    !- Latent Heat Recovery Effectiveness {dimensionless}

!- =========== ALL OBJECTS IN CLASS: OUTPUT:VARIABLEDICTIONARY ===========

  Output:VariableDictionary,IDF;

!***********************************************************
!****** OUTPUT CONTROLS ************************************
!***********************************************************
!- =========== ALL OBJECTS IN CLASS: OUTPUT:VARIABLE ===========

  Output:Variable,*,Site Outdoor Air Drybulb Temperature,hourly;

  Output:Variable,*,Surface Other Side Conditions Modeled Convection Air Temperature,hourly;

  Output:Variable,*,Surface Average Face Conduction Heat Transfer Rate per Area,hourly;

  Output:Variable,*,GroundDomain Slab Zone Coupled Surface Heat Flux,hourly;

  Output:Variable,*,GroundDomain Slab Zone Coupled Surface Temperature,hourly;

  OutputControl:Table:Style,
    HTML;                    !- Column Separator

  Output:Table:SummaryReports,
    AllSummary;              !- Report 1 Name

