!-Generator IDFEditor 1.44
!-Option SortedOrder
!-NOTE: All comments with '!-' are ignored by the IDFEditor and are generated automatically.
!- Use '!' comments if they need to be retained when using the IDFEditor.
!- =========== ALL OBJECTS IN CLASS: VERSION ===========
! ZoneCoupledKivaBasement.idf
! Basic File Description:
! This input file exemplifies the use of the Foundation outside boundary
! to perform the simulation of ground coupled heat transfer.
! Highlights: Simulates ground coupled heat transfer with basement zone.
! Simulation Location/Run:
! Location: Denver, CO
! Design Days SummerDesignDay and WinterDesignDay
! Run Period: Annual simulation
! Run Control: Annual simulation
!
! Building: Idealized approximation of simple residential building with basement
! Floor Area: 100 m2 per floor
! Number of Stories: 2, one below ground
!
! Zone Description Details:
! Internal gains description: None, disabled as the feature of this input file
! is the foundation heat exchanger operation, not zone simulation.
! Interzone Surfaces: The surface separating the main floor from the basement
! is an unentered interzone surface.
! Internal Mass: None
! People: None
! Lights: None
! Windows: None
! Detached Shading: None
! Daylight: None
! Natural Ventilation: None
! Compact Schedules (preferred): Yes
! Solar Distribution: FullInteriorAndExterior
!
! HVAC: Ideal air system
! Purchased Air: No
! Zonal Equipment: No
! Central Air Handling Equipment: No
! System Equipment Autosize: No
! Purchased Cooling: No
! Purchased Heating: No
! Coils: No
! Pumps: No
! Boilers: No
! Chillers: No
! Towers: No
!
! Results: Standard hourly variables for zone.
! Standard Reports: No
! Timestep or Hourly Variables: Hourly
! Time bins Report: No
! HTML Report: Yes
! Environmental Emissions: No
! Utility Tariffs: No
!***********************************************************
!****** SIMULATION CONTROLS ********************************
!***********************************************************

  Version,24.1;

!- =========== ALL OBJECTS IN CLASS: SIMULATIONCONTROL ===========

  SimulationControl,
    No,                      !- Do Zone Sizing Calculation
    No,                      !- Do System Sizing Calculation
    NO,                      !- Do Plant Sizing Calculation
    No,                      !- Run Simulation for Sizing Periods
    Yes,                     !- Run Simulation for Weather File Run Periods
    No,                      !- Do HVAC Sizing Simulation for Sizing Periods
    1;                       !- Maximum Number of HVAC Sizing Simulation Passes

  SurfaceConvectionAlgorithm:Inside,AdaptiveConvectionAlgorithm;

  SurfaceConvectionAlgorithm:Outside,AdaptiveConvectionAlgorithm;

  SurfaceConvectionAlgorithm:Inside:AdaptiveModelSelections,
    Default Algorithm,       !- Name
    FohannoPolidoriVerticalWall,  !- Simple Buoyancy Vertical Wall Equation Source
    ,                        !- Simple Buoyancy Vertical Wall User Curve Name
    AlamdariHammondStableHorizontal,  !- Simple Buoyancy Stable Horizontal Equation Source
    ,                        !- Simple Buoyancy Stable Horizontal Equation User Curve Name
    AlamdariHammondUnstableHorizontal,  !- Simple Buoyancy Unstable Horizontal Equation Source
    ,                        !- Simple Buoyancy Unstable Horizontal Equation User Curve Name
    WaltonStableHorizontalOrTilt,  !- Simple Buoyancy Stable Tilted Equation Source
    ,                        !- Simple Buoyancy Stable Tilted Equation User Curve Name
    WaltonUnstableHorizontalOrTilt,  !- Simple Buoyancy Unstable Tilted Equation Source
    ,                        !- Simple Buoyancy Unstable Tilted Equation User Curve Name
    ISO15099Windows,         !- Simple Buoyancy Windows Equation Source
    ,                        !- Simple Buoyancy Windows Equation User Curve Name
    KhalifaEq3WallAwayFromHeat,  !- Floor Heat Ceiling Cool Vertical Wall Equation Source
    ,                        !- Floor Heat Ceiling Cool Vertical Wall Equation User Curve Name
    AlamdariHammondStableHorizontal,  !- Floor Heat Ceiling Cool Stable Horizontal Equation Source
    ,                        !- Floor Heat Ceiling Cool Stable Horizontal Equation User Curve Name
    KhalifaEq4CeilingAwayFromHeat,  !- Floor Heat Ceiling Cool Unstable Horizontal Equation Source
    ,                        !- Floor Heat Ceiling Cool Unstable Horizontal Equation User Curve Name
    AwbiHattonHeatedFloor,   !- Floor Heat Ceiling Cool Heated Floor Equation Source
    ,                        !- Floor Heat Ceiling Cool Heated Floor Equation User Curve Name
    KaradagChilledCeiling,   !- Floor Heat Ceiling Cool Chilled Ceiling Equation Source
    ,                        !- Floor Heat Ceiling Cool Chilled Ceiling Equation User Curve Name
    WaltonStableHorizontalOrTilt,  !- Floor Heat Ceiling Cool Stable Tilted Equation Source
    ,                        !- Floor Heat Ceiling Cool Stable Tilted Equation User Curve Name
    WaltonUnstableHorizontalOrTilt,  !- Floor Heat Ceiling Cool Unstable Tilted Equation Source
    ,                        !- Floor Heat Ceiling Cool Unstable Tilted Equation User Curve Name
    ISO15099Windows,         !- Floor Heat Ceiling Cool Window Equation Source
    ,                        !- Floor Heat Ceiling Cool Window Equation User Curve Name
    KhalifaEq6NonHeatedWalls,!- Wall Panel Heating Vertical Wall Equation Source
    ,                        !- Wall Panel Heating Vertical Wall Equation User Curve Name
    AwbiHattonHeatedWall,    !- Wall Panel Heating Heated Wall Equation Source
    ,                        !- Wall Panel Heating Heated Wall Equation User Curve Name
    AlamdariHammondStableHorizontal,  !- Wall Panel Heating Stable Horizontal Equation Source
    ,                        !- Wall Panel Heating Stable Horizontal Equation User Curve Name
    KhalifaEq7Ceiling,       !- Wall Panel Heating Unstable Horizontal Equation Source
    ,                        !- Wall Panel Heating Unstable Horizontal Equation User Curve Name
    WaltonStableHorizontalOrTilt,  !- Wall Panel Heating Stable Tilted Equation Source
    ,                        !- Wall Panel Heating Stable Tilted Equation User Curve Name
    WaltonUnstableHorizontalOrTilt,  !- Wall Panel Heating Unstable Tilted Equation Source
    ,                        !- Wall Panel Heating Unstable Tilted Equation User Curve Name
    ISO15099Windows,         !- Wall Panel Heating Window Equation Source
    ,                        !- Wall Panel Heating Window Equation User Curve Name
    FohannoPolidoriVerticalWall,  !- Convective Zone Heater Vertical Wall Equation Source
    ,                        !- Convective Zone Heater Vertical Wall Equation User Curve Name
    KhalifaEq5WallNearHeat,  !- Convective Zone Heater Vertical Walls Near Heater Equation Source
    ,                        !- Convective Zone Heater Vertical Walls Near Heater Equation User Curve Name
    AlamdariHammondStableHorizontal,  !- Convective Zone Heater Stable Horizontal Equation Source
    ,                        !- Convective Zone Heater Stable Horizontal Equation User Curve Name
    KhalifaEq7Ceiling,       !- Convective Zone Heater Unstable Horizontal Equation Source
    ,                        !- Convective Zone Heater Unstable Horizontal Equation User Curve Name
    WaltonStableHorizontalOrTilt,  !- Convective Zone Heater Stable Tilted Equation Source
    ,                        !- Convective Zone Heater Stable Tilted Equation User Curve Name
    WaltonUnstableHorizontalOrTilt,  !- Convective Zone Heater Unstable Tilted Equation Source
    ,                        !- Convective Zone Heater Unstable Tilted Equation User Curve Name
    ISO15099Windows,         !- Convective Zone Heater Windows Equation Source
    ,                        !- Convective Zone Heater Windows Equation User Curve Name
    GoldsteinNovoselacCeilingDiffuserWalls,  !- Central Air Diffuser Wall Equation Source
    ,                        !- Central Air Diffuser Wall Equation User Curve Name
    FisherPedersenCeilingDiffuserCeiling,  !- Central Air Diffuser Ceiling Equation Source
    ,                        !- Central Air Diffuser Ceiling Equation User Curve Name
    GoldsteinNovoselacCeilingDiffuserFloor,  !- Central Air Diffuser Floor Equation Source
    ,                        !- Central Air Diffuser Floor Equation User Curve Name
    GoldsteinNovoselacCeilingDiffuserWindow,  !- Central Air Diffuser Window Equation Source
    ,                        !- Central Air Diffuser Window Equation User Curve Name
    KhalifaEq3WallAwayFromHeat,  !- Mechanical Zone Fan Circulation Vertical Wall Equation Source
    ,                        !- Mechanical Zone Fan Circulation Vertical Wall Equation User Curve Name
    AlamdariHammondStableHorizontal,  !- Mechanical Zone Fan Circulation Stable Horizontal Equation Source
    ,                        !- Mechanical Zone Fan Circulation Stable Horizontal Equation User Curve Name
    KhalifaEq4CeilingAwayFromHeat,  !- Mechanical Zone Fan Circulation Unstable Horizontal Equation Source
    ,                        !- Mechanical Zone Fan Circulation Unstable Horizontal Equation User Curve Name
    WaltonStableHorizontalOrTilt,  !- Mechanical Zone Fan Circulation Stable Tilted Equation Source
    ,                        !- Mechanical Zone Fan Circulation Stable Tilted Equation User Curve Name
    WaltonUnstableHorizontalOrTilt,  !- Mechanical Zone Fan Circulation Unstable Tilted Equation Source
    ,                        !- Mechanical Zone Fan Circulation Unstable Tilted Equation User Curve Name
    ISO15099Windows,         !- Mechanical Zone Fan Circulation Window Equation Source
    ,                        !- Mechanical Zone Fan Circulation Window Equation User Curve Name
    BeausoleilMorrisonMixedAssistedWall,  !- Mixed Regime Buoyancy Assisting Flow on Walls Equation Source
    ,                        !- Mixed Regime Buoyancy Assisting Flow on Walls Equation User Curve Name
    BeausoleilMorrisonMixedOpposingWall,  !- Mixed Regime Buoyancy Opposing Flow on Walls Equation Source
    ,                        !- Mixed Regime Buoyancy Opposing Flow on Walls Equation User Curve Name
    BeausoleilMorrisonMixedStableFloor,  !- Mixed Regime Stable Floor Equation Source
    ,                        !- Mixed Regime Stable Floor Equation User Curve Name
    BeausoleilMorrisonMixedUnstableFloor,  !- Mixed Regime Unstable Floor Equation Source
    ,                        !- Mixed Regime Unstable Floor Equation User Curve Name
    BeausoleilMorrisonMixedStableCeiling,  !- Mixed Regime Stable Ceiling Equation Source
    ,                        !- Mixed Regime Stable Ceiling Equation User Curve Name
    BeausoleilMorrisonMixedUnstableCeiling,  !- Mixed Regime Unstable Ceiling Equation Source
    ,                        !- Mixed Regime Unstable Ceiling Equation User Curve Name
    GoldsteinNovoselacCeilingDiffuserWindow,  !- Mixed Regime Window Equation Source
    ;                        !- Mixed Regime Window Equation User Curve Name

  SurfaceConvectionAlgorithm:Outside:AdaptiveModelSelections,
    Default algorithms,      !- Name
    TARPWindward,            !- Wind Convection Windward Vertical Wall Equation Source
    ,                        !- Wind Convection Windward Equation Vertical Wall User Curve Name
    TARPLeeward,             !- Wind Convection Leeward Vertical Wall Equation Source
    ,                        !- Wind Convection Leeward Vertical Wall Equation User Curve Name
    ClearRoof,               !- Wind Convection Horizontal Roof Equation Source
    ,                        !- Wind Convection Horizontal Roof User Curve Name
    ASHRAEVerticalWall,      !- Natural Convection Vertical Wall Equation Source
    ,                        !- Natural Convection Vertical Wall Equation User Curve Name
    WaltonStableHorizontalOrTilt,  !- Natural Convection Stable Horizontal Equation Source
    ,                        !- Natural Convection Stable Horizontal Equation User Curve Name
    WaltonUnstableHorizontalOrTilt,  !- Natural Convection Unstable Horizontal Equation Source
    ;                        !- Natural Convection Unstable Horizontal Equation User Curve Name

!- =========== ALL OBJECTS IN CLASS: BUILDING ===========

  Building,
    House,                   !- Name
    0.0,                     !- North Axis {deg}
    Suburbs,                 !- Terrain
    0.05,                    !- Loads Convergence Tolerance Value {W}
    0.05,                    !- Temperature Convergence Tolerance Value {deltaC}
    FullInteriorAndExterior, !- Solar Distribution
    35,                      !- Maximum Number of Warmup Days
    6;                       !- Minimum Number of Warmup Days

!- =========== ALL OBJECTS IN CLASS: TIMESTEP ===========

  Timestep,4;

!- =========== ALL OBJECTS IN CLASS: SITE:LOCATION ===========
!***********************************************************
!****** LOCATION SPECIFIC OBJECTS **************************
!***********************************************************

  Site:Location,
    Denver Centennial  Golden   N_CO_USA Design_Conditions,  !- Name
    39.74,                   !- Latitude {deg}
    -105.18,                 !- Longitude {deg}
    -7.00,                   !- Time Zone {hr}
    1829.00;                 !- Elevation {m}

!- =========== ALL OBJECTS IN CLASS: SIZINGPERIOD:DESIGNDAY ===========
 ! Denver Centennial  Golden   N_CO_USA Annual Heating Design Conditions Wind Speed=3m/s Wind Dir=340
 ! Coldest Month=DEC
 ! Denver Centennial  Golden   N_CO_USA Annual Heating 99.6%, MaxDB=-18.8°C

  SizingPeriod:DesignDay,
    Denver Centennial  Golden   N Ann Htg 99.6% Condns DB,  !- Name
    12,                      !- Month
    21,                      !- Day of Month
    WinterDesignDay,         !- Day Type
    -18.8,                   !- Maximum Dry-Bulb Temperature {C}
    0.0,                     !- Daily Dry-Bulb Temperature Range {deltaC}
    DefaultMultipliers,      !- Dry-Bulb Temperature Range Modifier Type
    ,                        !- Dry-Bulb Temperature Range Modifier Day Schedule Name
    Wetbulb,                 !- Humidity Condition Type
    -18.8,                   !- Wetbulb or DewPoint at Maximum Dry-Bulb {C}
    ,                        !- Humidity Condition Day Schedule Name
    ,                        !- Humidity Ratio at Maximum Dry-Bulb {kgWater/kgDryAir}
    ,                        !- Enthalpy at Maximum Dry-Bulb {J/kg}
    ,                        !- Daily Wet-Bulb Temperature Range {deltaC}
    81198.,                  !- Barometric Pressure {Pa}
    3,                       !- Wind Speed {m/s}
    340,                     !- Wind Direction {deg}
    No,                      !- Rain Indicator
    No,                      !- Snow Indicator
    No,                      !- Daylight Saving Time Indicator
    ASHRAEClearSky,          !- Solar Model Indicator
    ,                        !- Beam Solar Day Schedule Name
    ,                        !- Diffuse Solar Day Schedule Name
    ,                        !- ASHRAE Clear Sky Optical Depth for Beam Irradiance (taub) {dimensionless}
    ,                        !- ASHRAE Clear Sky Optical Depth for Diffuse Irradiance (taud) {dimensionless}
    0.00;                    !- Sky Clearness

 ! Denver Centennial  Golden   N Annual Cooling Design Conditions Wind Speed=4.9m/s Wind Dir=0
 ! Hottest Month=JUL
 ! Denver Centennial  Golden   N_CO_USA Annual Cooling (DB=>MWB) .4%, MaxDB=33°C MWB=15.7°C

  SizingPeriod:DesignDay,
    Denver Centennial  Golden   N Ann Clg .4% Condns DB=>MWB,  !- Name
    7,                       !- Month
    21,                      !- Day of Month
    SummerDesignDay,         !- Day Type
    33,                      !- Maximum Dry-Bulb Temperature {C}
    15.2,                    !- Daily Dry-Bulb Temperature Range {deltaC}
    DefaultMultipliers,      !- Dry-Bulb Temperature Range Modifier Type
    ,                        !- Dry-Bulb Temperature Range Modifier Day Schedule Name
    Wetbulb,                 !- Humidity Condition Type
    15.7,                    !- Wetbulb or DewPoint at Maximum Dry-Bulb {C}
    ,                        !- Humidity Condition Day Schedule Name
    ,                        !- Humidity Ratio at Maximum Dry-Bulb {kgWater/kgDryAir}
    ,                        !- Enthalpy at Maximum Dry-Bulb {J/kg}
    ,                        !- Daily Wet-Bulb Temperature Range {deltaC}
    81198.,                  !- Barometric Pressure {Pa}
    4.9,                     !- Wind Speed {m/s}
    0,                       !- Wind Direction {deg}
    No,                      !- Rain Indicator
    No,                      !- Snow Indicator
    No,                      !- Daylight Saving Time Indicator
    ASHRAETau,               !- Solar Model Indicator
    ,                        !- Beam Solar Day Schedule Name
    ,                        !- Diffuse Solar Day Schedule Name
    0.424,                   !- ASHRAE Clear Sky Optical Depth for Beam Irradiance (taub) {dimensionless}
    2.025;                   !- ASHRAE Clear Sky Optical Depth for Diffuse Irradiance (taud) {dimensionless}

!- =========== ALL OBJECTS IN CLASS: RUNPERIOD ===========

  RunPeriod,
    Annual Run,              !- Name
    1,                       !- Begin Month
    1,                       !- Begin Day of Month
    ,                        !- Begin Year
    12,                      !- End Month
    31,                      !- End Day of Month
    ,                        !- End Year
    Tuesday,                 !- Day of Week for Start Day
    Yes,                     !- Use Weather File Holidays and Special Days
    Yes,                     !- Use Weather File Daylight Saving Period
    No,                      !- Apply Weekend Holiday Rule
    Yes,                     !- Use Weather File Rain Indicators
    Yes;                     !- Use Weather File Snow Indicators

!***********************************************************
!****** BASEMENT ZONE SPECIFICATION ************************
!***********************************************************

  Zone,
    Basement,                !- Name
    0,                       !- Direction of Relative North {deg}
    0,                       !- X Origin {m}
    0,                       !- Y Origin {m}
    0,                       !- Z Origin {m}
    ,                        !- Type
    ,                        !- Multiplier
    autocalculate,           !- Ceiling Height {m}
    autocalculate,           !- Volume {m3}
    autocalculate;           !- Floor Area {m2}

  BuildingSurface:Detailed,
    Basement Wall 1,         !- Name
    Wall,                    !- Surface Type
    Basement Wall Construction,  !- Construction Name
    Basement,                !- Zone Name
    ,                        !- Space Name
    Foundation,              !- Outside Boundary Condition
    Basement Foundation,     !- Outside Boundary Condition Object
    NoSun,                   !- Sun Exposure
    NoWind,                  !- Wind Exposure
    autocalculate,           !- View Factor to Ground
    4,                       !- Number of Vertices
    10.0,10.0,0.0,  !- X,Y,Z ==> Vertex 1 {m}
    10.0,10.0,-3.1,  !- X,Y,Z ==> Vertex 2 {m}
    0.0,10.0,-3.1,  !- X,Y,Z ==> Vertex 3 {m}
    0.0,10.0,0.0;  !- X,Y,Z ==> Vertex 4 {m}

  BuildingSurface:Detailed,
    Basement Wall 2,         !- Name
    Wall,                    !- Surface Type
    Basement Wall Construction,  !- Construction Name
    Basement,                !- Zone Name
    ,                        !- Space Name
    Foundation,              !- Outside Boundary Condition
    Basement Foundation,     !- Outside Boundary Condition Object
    NoSun,                   !- Sun Exposure
    NoWind,                  !- Wind Exposure
    autocalculate,           !- View Factor to Ground
    4,                       !- Number of Vertices
    0.0,0.0,0.0,  !- X,Y,Z ==> Vertex 1 {m}
    0.0,0.0,-3.1,  !- X,Y,Z ==> Vertex 2 {m}
    10.0,0.0,-3.1,  !- X,Y,Z ==> Vertex 3 {m}
    10.0,0.0,0.0;  !- X,Y,Z ==> Vertex 4 {m}

  BuildingSurface:Detailed,
    Basement Wall 3,         !- Name
    Wall,                    !- Surface Type
    Basement Wall Construction,  !- Construction Name
    Basement,                !- Zone Name
    ,                        !- Space Name
    Foundation,              !- Outside Boundary Condition
    Basement Foundation,     !- Outside Boundary Condition Object
    NoSun,                   !- Sun Exposure
    NoWind,                  !- Wind Exposure
    autocalculate,           !- View Factor to Ground
    4,                       !- Number of Vertices
    10.0,0.0,0.0,  !- X,Y,Z ==> Vertex 1 {m}
    10.0,0.0,-3.1,  !- X,Y,Z ==> Vertex 2 {m}
    10.0,10.0,-3.1,  !- X,Y,Z ==> Vertex 3 {m}
    10.0,10.0,0.0;  !- X,Y,Z ==> Vertex 4 {m}

  BuildingSurface:Detailed,
    Basement Wall 4,         !- Name
    Wall,                    !- Surface Type
    Basement Wall Construction,  !- Construction Name
    Basement,                !- Zone Name
    ,                        !- Space Name
    Foundation,              !- Outside Boundary Condition
    Basement Foundation,     !- Outside Boundary Condition Object
    NoSun,                   !- Sun Exposure
    NoWind,                  !- Wind Exposure
    autocalculate,           !- View Factor to Ground
    4,                       !- Number of Vertices
    0.0,10.0,0.0,  !- X,Y,Z ==> Vertex 1 {m}
    0.0,10.0,-3.1,  !- X,Y,Z ==> Vertex 2 {m}
    0.0,0.0,-3.1,  !- X,Y,Z ==> Vertex 3 {m}
    0.0,0.0,0.0;  !- X,Y,Z ==> Vertex 4 {m}

  SurfaceProperty:ExposedFoundationPerimeter,
    Basement Floor,          !- Surface Name
    BySegment,               !- Exposed Perimeter Calculation Method
    ,                        !- Total Exposed Perimeter {m}
    ,                        !- Exposed Perimeter Fraction {dimensionless}
    Yes,                     !- Surface Segment 1 Exposed
    Yes,                     !- Surface Segment 2 Exposed
    Yes,                     !- Surface Segment 3 Exposed
    Yes;                     !- Surface Segment 4 Exposed

  BuildingSurface:Detailed,
    Basement Floor,          !- Name
    Floor,                   !- Surface Type
    Basement Floor Construction,  !- Construction Name
    Basement,                !- Zone Name
    ,                        !- Space Name
    Foundation,              !- Outside Boundary Condition
    Basement Foundation,     !- Outside Boundary Condition Object
    NoSun,                   !- Sun Exposure
    NoWind,                  !- Wind Exposure
    autocalculate,           !- View Factor to Ground
    4,                       !- Number of Vertices
    10.0,10.0,-3.1,  !- X,Y,Z ==> Vertex 1 {m}
    10.0,0.0,-3.1,  !- X,Y,Z ==> Vertex 2 {m}
    0.0,0.0,-3.1,  !- X,Y,Z ==> Vertex 3 {m}
    0.0,10.0,-3.1;  !- X,Y,Z ==> Vertex 4 {m}

  BuildingSurface:Detailed,
    Basement Ceiling,        !- Name
    Ceiling,                 !- Surface Type
    Ceiling Construction,    !- Construction Name
    Basement,                !- Zone Name
    ,                        !- Space Name
    Zone,                    !- Outside Boundary Condition
    Main Floor,              !- Outside Boundary Condition Object
    NoSun,                   !- Sun Exposure
    NoWind,                  !- Wind Exposure
    autocalculate,           !- View Factor to Ground
    4,                       !- Number of Vertices
    0.0,10.0,0.0,  !- X,Y,Z ==> Vertex 1 {m}
    0.0,0.0,0.0,  !- X,Y,Z ==> Vertex 2 {m}
    10.0,0.0,0.0,  !- X,Y,Z ==> Vertex 3 {m}
    10.0,10.0,0.0;  !- X,Y,Z ==> Vertex 4 {m}

!***********************************************************
!****** ABOVE GROUND ZONE SPECIFICATION ********************
!***********************************************************

  Zone,
    Main Floor,              !- Name
    0,                       !- Direction of Relative North {deg}
    0,                       !- X Origin {m}
    0,                       !- Y Origin {m}
    0,                       !- Z Origin {m}
    ,                        !- Type
    ,                        !- Multiplier
    autocalculate,           !- Ceiling Height {m}
    autocalculate,           !- Volume {m3}
    autocalculate;           !- Floor Area {m2}

  BuildingSurface:Detailed,
    Main Floor Wall 1,       !- Name
    Wall,                    !- Surface Type
    Main Floor Wall Construction,  !- Construction Name
    Main Floor,              !- Zone Name
    ,                        !- Space Name
    Outdoors,                !- Outside Boundary Condition
    ,                        !- Outside Boundary Condition Object
    SunExposed,              !- Sun Exposure
    WindExposed,             !- Wind Exposure
    autocalculate,           !- View Factor to Ground
    4,                       !- Number of Vertices
    10.0,10.0,3.1,  !- X,Y,Z ==> Vertex 1 {m}
    10.0,10.0,0.0,  !- X,Y,Z ==> Vertex 2 {m}
    0.0,10.0,0.0,  !- X,Y,Z ==> Vertex 3 {m}
    0.0,10.0,3.1;  !- X,Y,Z ==> Vertex 4 {m}

  BuildingSurface:Detailed,
    Main Floor Wall 2,       !- Name
    Wall,                    !- Surface Type
    Main Floor Wall Construction,  !- Construction Name
    Main Floor,              !- Zone Name
    ,                        !- Space Name
    Outdoors,                !- Outside Boundary Condition
    ,                        !- Outside Boundary Condition Object
    SunExposed,              !- Sun Exposure
    WindExposed,             !- Wind Exposure
    autocalculate,           !- View Factor to Ground
    4,                       !- Number of Vertices
    0.0,0.0,3.1,  !- X,Y,Z ==> Vertex 1 {m}
    0.0,0.0,0.0,  !- X,Y,Z ==> Vertex 2 {m}
    10.0,0.0,0.0,  !- X,Y,Z ==> Vertex 3 {m}
    10.0,0.0,3.1;  !- X,Y,Z ==> Vertex 4 {m}

  BuildingSurface:Detailed,
    Main Floor Wall 3,       !- Name
    Wall,                    !- Surface Type
    Main Floor Wall Construction,  !- Construction Name
    Main Floor,              !- Zone Name
    ,                        !- Space Name
    Outdoors,                !- Outside Boundary Condition
    ,                        !- Outside Boundary Condition Object
    SunExposed,              !- Sun Exposure
    WindExposed,             !- Wind Exposure
    autocalculate,           !- View Factor to Ground
    4,                       !- Number of Vertices
    10.0,0.0,3.1,  !- X,Y,Z ==> Vertex 1 {m}
    10.0,0.0,0.0,  !- X,Y,Z ==> Vertex 2 {m}
    10.0,10.0,0.0,  !- X,Y,Z ==> Vertex 3 {m}
    10.0,10.0,3.1;  !- X,Y,Z ==> Vertex 4 {m}

  BuildingSurface:Detailed,
    Main Floor Wall 4,       !- Name
    Wall,                    !- Surface Type
    Main Floor Wall Construction,  !- Construction Name
    Main Floor,              !- Zone Name
    ,                        !- Space Name
    Outdoors,                !- Outside Boundary Condition
    ,                        !- Outside Boundary Condition Object
    SunExposed,              !- Sun Exposure
    WindExposed,             !- Wind Exposure
    autocalculate,           !- View Factor to Ground
    4,                       !- Number of Vertices
    0.0,10.0,3.1,  !- X,Y,Z ==> Vertex 1 {m}
    0.0,10.0,0.0,  !- X,Y,Z ==> Vertex 2 {m}
    0.0,0.0,0.0,  !- X,Y,Z ==> Vertex 3 {m}
    0.0,0.0,3.1;  !- X,Y,Z ==> Vertex 4 {m}

  BuildingSurface:Detailed,
    Main Floor Roof,         !- Name
    Roof,                    !- Surface Type
    Roof Construction,       !- Construction Name
    Main Floor,              !- Zone Name
    ,                        !- Space Name
    Outdoors,                !- Outside Boundary Condition
    ,                        !- Outside Boundary Condition Object
    SunExposed,              !- Sun Exposure
    WindExposed,             !- Wind Exposure
    autocalculate,           !- View Factor to Ground
    4,                       !- Number of Vertices
    0.0,10.0,3.1,  !- X,Y,Z ==> Vertex 1 {m}
    0.0,0.0,3.1,  !- X,Y,Z ==> Vertex 2 {m}
    10.0,0.0,3.1,  !- X,Y,Z ==> Vertex 3 {m}
    10.0,10.0,3.1;  !- X,Y,Z ==> Vertex 4 {m}

!- =========== ALL OBJECTS IN CLASS: CONSTRUCTION ===========
!***********************************************************
!****** ABOVE-GROUND MATERIALS/CONSTRUCTIONS ***************
!***********************************************************
! ASHRAE 1145-RP Wall Assembly 2
! 2"x6" wood studs at 24" on center with between-stud R19 fibreglass insulation.
! Layers are 1/2" wood siding, 1/2" plywood, 2x6 wood studs and R19 insulation, 1/2" gypsum board.
! Area-average R-Value = 17.487 ft2-F-h/Btu (3.078 m2-K/W).
! Total wall thickness = 7.00in (0.178m)
! Material layer names follow:

  Construction,
    Main Floor Wall Construction,  !- Name
    Composite 2x6 Wood Stud R19 #3,  !- Outside Layer
    Composite 2x6 Wood Stud R19 #2,  !- Layer 2
    Composite 2x6 Wood Stud R19 #1;  !- Layer 3

  Material,
    Composite 2x6 Wood Stud R19 #1,  !- Name
    Smooth,                  !- Roughness
    0.019,                   !- Thickness {m}
    0.137,                   !- Conductivity {W/m-K}
    640.0,                   !- Density {kg/m3}
    1006,                    !- Specific Heat {J/kg-K}
    0.9,                     !- Thermal Absorptance
    0.7,                     !- Solar Absorptance
    0.7;                     !- Visible Absorptance

  Material,
    Composite 2x6 Wood Stud R19 #2,  !- Name
    Smooth,                  !- Roughness
    0.133,                   !- Thickness {m}
    0.047,                   !- Conductivity {W/m-K}
    93.84,                   !- Density {kg/m3}
    1006,                    !- Specific Heat {J/kg-K}
    0.9,                     !- Thermal Absorptance
    0.7,                     !- Solar Absorptance
    0.7;                     !- Visible Absorptance

  Material,
    Composite 2x6 Wood Stud R19 #3,  !- Name
    Smooth,                  !- Roughness
    0.025,                   !- Thickness {m}