!-Generator IDFEditor 1.49
!-Option SortedOrder
!-NOTE: All comments with '!-' are ignored by the IDFEditor and are generated automatically.
!-      Use '!' comments if they need to be retained when using the IDFEditor.
!-   ===========  ALL OBJECTS IN CLASS: VERSION ===========
!
! Basic file description:  This file models a single zone building with a hybrid unitary HVAC system using object:
!
!                              ZoneHVAC:HybridUnitaryHVAC
!
! Highlights:              Test of AvailabilityManagers for controlling an air system.
!
! Simulation Location/Run: DENVER_STAPLETON_CO_USA_WMO_724690, 2 design days, 1 run period,
!                          Run Control executes two design days (see RUN PERIOD object)
!
! Location:                Denver, CO
!
! Design Days:             DENVER_STAPLETON_CO_USA Annual Heating 99%, MaxDB=-16°C
!                          DENVER_STAPLETON_CO_USA Annual Cooling (DB=>MWB) 1%, MaxDB=32.6°C MWB=15.5°C
!
! Run Period (Weather File): Full Annual Simulation, DENVER_STAPLETON_CO_USA_WMO_724690
!
! Run Control:             No zone or system sizing, design day run control (no weather file simulation)
!
! Building:                Fictional 1 zone building with resistive walls based on 1ZoneUncontrolled example.
!                          No windows.  No internal gains.  No internal mass.  The building is oriented due north.
!
! Floor Area:              232.25 m2
! Number of Stories:       1

  Version,8.8;

!-   ===========  ALL OBJECTS IN CLASS: SIMULATIONCONTROL ===========

  SimulationControl,
    No,                      !- Do Zone Sizing Calculation
    No,                      !- Do System Sizing Calculation
    No,                      !- Do Plant Sizing Calculation
    Yes,                     !- Run Simulation for Sizing Periods
    no;                      !- Run Simulation for Weather File Run Periods

!-   ===========  ALL OBJECTS IN CLASS: BUILDING ===========

  Building,
    Bldg,                    !- Name
    0.0,                     !- North Axis {deg}
    Suburbs,                 !- Terrain
    0.05,                    !- Loads Convergence Tolerance Value
    0.05,                    !- Temperature Convergence Tolerance Value {deltaC}
    MinimalShadowing,        !- Solar Distribution
    30,                      !- Maximum Number of Warmup Days
    6;                       !- Minimum Number of Warmup Days

!-   ===========  ALL OBJECTS IN CLASS: SURFACECONVECTIONALGORITHM:INSIDE ===========

  SurfaceConvectionAlgorithm:Inside,TARP;

!-   ===========  ALL OBJECTS IN CLASS: SURFACECONVECTIONALGORITHM:OUTSIDE ===========

  SurfaceConvectionAlgorithm:Outside,DOE-2;

!-   ===========  ALL OBJECTS IN CLASS: HEATBALANCEALGORITHM ===========

  HeatBalanceAlgorithm,ConductionTransferFunction;

!-   ===========  ALL OBJECTS IN CLASS: TIMESTEP ===========

  Timestep,6;

!-   ===========  ALL OBJECTS IN CLASS: SITE:LOCATION ===========

  Site:Location,
    Denver Centennial CO USA WMO=724666,  !- Name
    39.57,                   !- Latitude {deg}
    -104.85,                 !- Longitude {deg}
    -7.00,                   !- Time Zone {hr}
    1793.00;                 !- Elevation {m}

!-   ===========  ALL OBJECTS IN CLASS: SIZINGPERIOD:DESIGNDAY ===========
!  WMO=724666 Time Zone=NAM        (GMT-07:00) Mountain Time (US & Canada)
!  Data Source=ASHRAE 2009 Annual Design Conditions
! Using Design Conditions from "Climate Design Data 2009 ASHRAE Handbook"
! Denver Centennial CO USA Extreme Annual Wind Speeds, 1%=11.1m/s, 2.5%=9.5m/s, 5%=8.4m/s
! Denver Centennial CO USA Extreme Annual Temperatures, Max Drybulb=-22.9°C Min Drybulb=36.1°C
! Denver Centennial CO USA Annual Heating Design Conditions Wind Speed=3m/s Wind Dir=340
! Coldest Month=December
! Denver Centennial CO USA Annual Heating 99.6%, MaxDB=-18.8°C

  SizingPeriod:DesignDay,
    Denver Centennial Ann Htg 99.6% Condns DB,  !- Name
    12,                      !- Month
    21,                      !- Day of Month
    WinterDesignDay,         !- Day Type
    -18.8,                   !- Maximum Dry-Bulb Temperature {C}
    0.0,                     !- Daily Dry-Bulb Temperature Range {deltaC}
    ,                        !- Dry-Bulb Temperature Range Modifier Type
    ,                        !- Dry-Bulb Temperature Range Modifier Day Schedule Name
    Wetbulb,                 !- Humidity Condition Type
    -18.8,                   !- Wetbulb or DewPoint at Maximum Dry-Bulb {C}
    ,                        !- Humidity Condition Day Schedule Name
    0.0005,                  !- Humidity Ratio at Maximum Dry-Bulb {kgWater/kgDryAir}
    ,                        !- Enthalpy at Maximum Dry-Bulb {J/kg}
    ,                        !- Daily Wet-Bulb Temperature Range {deltaC}
    81560.,                  !- Barometric Pressure {Pa}
    3,                       !- Wind Speed {m/s}
    340,                     !- Wind Direction {deg}
    No,                      !- Rain Indicator
    No,                      !- Snow Indicator
    No,                      !- Daylight Saving Time Indicator
    ASHRAEClearSky,          !- Solar Model Indicator
    ,                        !- Beam Solar Day Schedule Name
    ,                        !- Diffuse Solar Day Schedule Name
    ,                        !- ASHRAE Clear Sky Optical Depth for Beam Irradiance (taub) {dimensionless}
    ,                        !- ASHRAE Clear Sky Optical Depth for Diffuse Irradiance (taud) {dimensionless}
    0.00;                    !- Sky Clearness

! Denver Centennial Annual Cooling Design Conditions Wind Speed=4.9m/s Wind Dir=0
! Hottest Month=July
! Denver Centennial CO USA Annual Cooling (DB=>MWB) 1%, MaxDB=32°C MWB=15.5°C

  SizingPeriod:DesignDay,
    Denver Centennial Ann Clg 1% Condns DB=>MWB,  !- Name
    7,                       !- Month
    21,                      !- Day of Month
    SummerDesignDay,         !- Day Type
    36,                      !- Maximum Dry-Bulb Temperature {C}
    15.2,                    !- Daily Dry-Bulb Temperature Range {deltaC}
    ,                        !- Dry-Bulb Temperature Range Modifier Type
    ,                        !- Dry-Bulb Temperature Range Modifier Day Schedule Name
    Wetbulb,                 !- Humidity Condition Type
    15.5,                    !- Wetbulb or DewPoint at Maximum Dry-Bulb {C}
    ,                        !- Humidity Condition Day Schedule Name
    0.0188,                  !- Humidity Ratio at Maximum Dry-Bulb {kgWater/kgDryAir}
    ,                        !- Enthalpy at Maximum Dry-Bulb {J/kg}
    ,                        !- Daily Wet-Bulb Temperature Range {deltaC}
    81560.,                  !- Barometric Pressure {Pa}
    4.9,                     !- Wind Speed {m/s}
    0,                       !- Wind Direction {deg}
    No,                      !- Rain Indicator
    No,                      !- Snow Indicator
    No,                      !- Daylight Saving Time Indicator
    ASHRAEClearSky,          !- Solar Model Indicator
    ,                        !- Beam Solar Day Schedule Name
    ,                        !- Diffuse Solar Day Schedule Name
    ,                        !- ASHRAE Clear Sky Optical Depth for Beam Irradiance (taub) {dimensionless}
    ,                        !- ASHRAE Clear Sky Optical Depth for Diffuse Irradiance (taud) {dimensionless}
    1.00;                    !- Sky Clearness

!-   ===========  ALL OBJECTS IN CLASS: RUNPERIOD ===========

  RunPeriod,
    ,                        !- Name
    1,                       !- Begin Month
    1,                       !- Begin Day of Month
    ,                        !- Begin Year
    12,                      !- End Month
    31,                      !- End Day of Month
    ,                        !- End Year
    Tuesday,                 !- Day of Week for Start Day
    Yes,                     !- Use Weather File Holidays and Special Days
    Yes,                     !- Use Weather File Daylight Saving Period
    No,                      !- Apply Weekend Holiday Rule
    Yes,                     !- Use Weather File Rain Indicators
    Yes;                     !- Use Weather File Snow Indicators

!-   ===========  ALL OBJECTS IN CLASS: SITE:GROUNDTEMPERATURE:BUILDINGSURFACE ===========

  Site:GroundTemperature:BuildingSurface,18.89,18.92,19.02,19.12,19.21,19.23,19.07,19.32,19.09,19.21,19.13,18.96;

!-   ===========  ALL OBJECTS IN CLASS: SCHEDULETYPELIMITS ===========

  ScheduleTypeLimits,
    Fraction,                !- Name
    0.0,                     !- Lower Limit Value
    1.0,                     !- Upper Limit Value
    CONTINUOUS;              !- Numeric Type

  ScheduleTypeLimits,
    Any Number;              !- Name

!-   ===========  ALL OBJECTS IN CLASS: SCHEDULE:COMPACT ===========

  Schedule:Compact,
    System Availability Schedule,  !- Name
    Any Number,              !- Schedule Type Limits Name
    THROUGH: 12/31,          !- Field 1
    FOR: AllDays,            !- Field 2
    UNTIL: 24:00,1;          !- Field 3

  Schedule:Compact,
    Fan Availability Schedule,  !- Name
    Any Number,              !- Schedule Type Limits Name
    THROUGH: 12/31,          !- Field 1
    FOR: AllDays,            !- Field 2
    UNTIL: 12:00,1,          !- Field 3
    UNTIL: 24:00,0;          !- Field 5

  Schedule:Compact,
    ALWAYS_ON,               !- Name
    On/Off,                  !- Schedule Type Limits Name
    Through: 12/31,          !- Field 1
    For: AllDays,            !- Field 2
    Until: 24:00,1;          !- Field 3

  Schedule:Compact,
    MinSupplyT,              !- Name
    Temperature,             !- Schedule Type Limits Name
    Through: 12/31,          !- Field 1
    For: AllDays,            !- Field 2
    Until: 24:00,2;          !- Field 3

  Schedule:Compact,
    MaxSupplyT,              !- Name
    Temperature,             !- Schedule Type Limits Name
    Through: 12/31,          !- Field 1
    For: AllDays,            !- Field 2
    Until: 24:00,50;         !- Field 3

  Schedule:Compact,
    MinSupplyHR,             !- Name
    Temperature,             !- Schedule Type Limits Name
    Through: 12/31,          !- Field 1
    For: AllDays,            !- Field 2
    Until: 24:00,0;          !- Field 3

  Schedule:Compact,
    MaxSupplyHR,             !- Name
    Temperature,             !- Schedule Type Limits Name
    Through: 12/31,          !- Field 1
    For: AllDays,            !- Field 2
    Until: 24:00,0.03;       !- Field 3

  Schedule:Compact,
    Zone Control Type Sched, !- Name
    Any Number,              !- Schedule Type Limits Name
    Through: 12/31,          !- Field 1
    For: AllDays,            !- Field 2
    Until: 24:00,4;          !- Field 3

  Schedule:Compact,
    Heating Setpoint Schedule,  !- Name
    Any Number,              !- Schedule Type Limits Name
    Through: 12/31,          !- Field 1
    For: AllDays,            !- Field 2
    Until: 24:00,18;         !- Field 3

  Schedule:Compact,
    Cooling Setpoint Schedule,  !- Name
    Any Number,              !- Schedule Type Limits Name
    Through: 12/31,          !- Field 1
    For: AllDays,            !- Field 2
    Until: 24:00,22;         !- Field 3

  Schedule:Compact,
    MinOA_simple,            !- Name
    Fraction,                !- Schedule Type Limits Name
    Through: 12/31,          !- Field 1
    For: AllDays,            !- Field 2
    Until: 8:00,0.0,         !- Field 3
    Until: 21:00,1.0,        !- Field 5
    Until: 24:00,0.0;        !- Field 7

  Schedule:Compact,
    MinOA,                   !- Name
    Fraction,                !- Schedule Type Limits Name
    Through: 12/31,          !- Field 1
    For: WeekDays CustomDay1 CustomDay2, !- Field 2
    Until: 8:00,0.0,         !- Field 3
    Until: 21:00,1.0,        !- Field 5
    Until: 24:00,0.0,        !- Field 7
    For: Weekends Holiday,   !- Field 9
    Until: 24:00,0.0,        !- Field 10
    For: SummerDesignDay,    !- Field 12
    Until: 24:00,1.0,        !- Field 13
    For: WinterDesignDay,    !- Field 15
    Until: 24:00,1.0;        !- Field 16

  Schedule:Compact,
    ActSchd,                 !- Name
    Any Number,              !- Schedule Type Limits Name
    Through: 12/31,          !- Field 1
    For: AllDays,            !- Field 2
    Until: 24:00,117.239997864; !- Field 3

  Schedule:Compact,
    OCCUPY-1,                !- Name
    Fraction,                !- Schedule Type Limits Name
    Through: 12/31,          !- Field 1
    For: WeekDays SummerDesignDay CustomDay1 CustomDay2, !- Field 2
    Until: 8:00,0.0,         !- Field 3
    Until: 11:00,1.00,       !- Field 5
    Until: 12:00,0.80,       !- Field 7
    Until: 13:00,0.40,       !- Field 9
    Until: 14:00,0.80,       !- Field 11
    Until: 18:00,1.00,       !- Field 13
    Until: 19:00,0.50,       !- Field 15
    Until: 24:00,0.0,        !- Field 17
    For: Weekends WinterDesignDay Holiday, !- Field 19
    Until: 24:00,0.0;        !- Field 20

!-   ===========  ALL OBJECTS IN CLASS: MATERIAL ===========

  Material,
    C5 - 4 IN HW CONCRETE,   !- Name
    MediumRough,             !- Roughness
    0.1014984,               !- Thickness {m}
    1.729577,                !- Conductivity {W/m-K}
    2242.585,                !- Density {kg/m3}
    836.8000,                !- Specific Heat {J/kg-K}
    0.9000000,               !- Thermal Absorptance
    0.6500000,               !- Solar Absorptance
    0.6500000;               !- Visible Absorptance

!-   ===========  ALL OBJECTS IN CLASS: MATERIAL:NOMASS ===========

  Material:NoMass,
    R13LAYER,                !- Name
    Rough,                   !- Roughness
    2.290965,                !- Thermal Resistance {m2-K/W}
    0.9000000,               !- Thermal Absorptance
    0.7500000,               !- Solar Absorptance
    0.7500000;               !- Visible Absorptance

  Material:NoMass,
    R31LAYER,                !- Name
    Rough,                   !- Roughness
    5.456,                   !- Thermal Resistance {m2-K/W}
    0.9000000,               !- Thermal Absorptance
    0.7500000,               !- Solar Absorptance
    0.7500000;               !- Visible Absorptance

!-   ===========  ALL OBJECTS IN CLASS: CONSTRUCTION ===========

  Construction,
    R13WALL,                 !- Name
    R13LAYER;                !- Outside Layer

  Construction,
    FLOOR,                   !- Name
    C5 - 4 IN HW CONCRETE;   !- Outside Layer

  Construction,
    ROOF31,                  !- Name
    R31LAYER;                !- Outside Layer

!-   ===========  ALL OBJECTS IN CLASS: GLOBALGEOMETRYRULES ===========

  GlobalGeometryRules,
    UpperLeftCorner,         !- Starting Vertex Position
    CounterClockWise,        !- Vertex Entry Direction
    World;                   !- Coordinate System

!-   ===========  ALL OBJECTS IN CLASS: ZONE ===========

  Zone,
    Main Zone,               !- Name
    0,                       !- Direction of Relative North {deg}
    0,                       !- X Origin {m}
    0,                       !- Y Origin {m}
    0,                       !- Z Origin {m}
    1,                       !- Type
    1,                       !- Multiplier
    autocalculate,           !- Ceiling Height {m}
    autocalculate;           !- Volume {m3}

!-   ===========  ALL OBJECTS IN CLASS: BUILDINGSURFACE:DETAILED ===========

  BuildingSurface:Detailed,
    Zn001:Wall001,           !- Name
    Wall,                    !- Surface Type
    R13WALL,                 !- Construction Name
    Main Zone,               !- Zone Name
    Outdoors,                !- Outside Boundary Condition
    ,                        !- Outside Boundary Condition Object
    SunExposed,              !- Sun Exposure
    WindExposed,             !- Wind Exposure
    0.5000000,               !- View Factor to Ground
    4,                       !- Number of Vertices
    0,0,4.572000,  !- X,Y,Z ==> Vertex 1 {m}
    0,0,0,  !- X,Y,Z ==> Vertex 2 {m}
    15.24000,0,0,  !- X,Y,Z ==> Vertex 3 {m}
    15.24000,0,4.572000;  !- X,Y,Z ==> Vertex 4 {m}

  BuildingSurface:Detailed,
    Zn001:Wall002,           !- Name
    Wall,                    !- Surface Type
    R13WALL,                 !- Construction Name
    Main Zone,               !- Zone Name
    Outdoors,                !- Outside Boundary Condition
    ,                        !- Outside Boundary Condition Object
    SunExposed,              !- Sun Exposure
    WindExposed,             !- Wind Exposure
    0.5000000,               !- View Factor to Ground
    4,                       !- Number of Vertices
    15.24000,0,4.572000,  !- X,Y,Z ==> Vertex 1 {m}
    15.24000,0,0,  !- X,Y,Z ==> Vertex 2 {m}
    15.24000,15.24000,0,  !- X,Y,Z ==> Vertex 3 {m}
    15.24000,15.24000,4.572000;  !- X,Y,Z ==> Vertex 4 {m}

  BuildingSurface:Detailed,
    Zn001:Wall003,           !- Name
    Wall,                    !- Surface Type
    R13WALL,                 !- Construction Name
    Main Zone,               !- Zone Name
    Outdoors,                !- Outside Boundary Condition
    ,                        !- Outside Boundary Condition Object
    SunExposed,              !- Sun Exposure
    WindExposed,             !- Wind Exposure
    0.5000000,               !- View Factor to Ground
    4,                       !- Number of Vertices
    15.24000,15.24000,4.572000,  !- X,Y,Z ==> Vertex 1 {m}
    15.24000,15.24000,0,  !- X,Y,Z ==> Vertex 2 {m}
    0,15.24000,0,  !- X,Y,Z ==> Vertex 3 {m}
    0,15.24000,4.572000;  !- X,Y,Z ==> Vertex 4 {m}

  BuildingSurface:Detailed,
    Zn001:Wall004,           !- Name
    Wall,                    !- Surface Type
    R13WALL,                 !- Construction Name
    Main Zone,               !- Zone Name
    Outdoors,                !- Outside Boundary Condition
    ,                        !- Outside Boundary Condition Object
    SunExposed,              !- Sun Exposure
    WindExposed,             !- Wind Exposure
    0.5000000,               !- View Factor to Ground
    4,                       !- Number of Vertices
    0,15.24000,4.572000,  !- X,Y,Z ==> Vertex 1 {m}
    0,15.24000,0,  !- X,Y,Z ==> Vertex 2 {m}
    0,0,0,  !- X,Y,Z ==> Vertex 3 {m}
    0,0,4.572000;  !- X,Y,Z ==> Vertex 4 {m}

  BuildingSurface:Detailed,
    Zn001:Flr001,            !- Name
    Floor,                   !- Surface Type
    FLOOR,                   !- Construction Name
    Main Zone,               !- Zone Name
    Surface,                 !- Outside Boundary Condition
    Zn001:Flr001,            !- Outside Boundary Condition Object
    NoSun,                   !- Sun Exposure
    NoWind,                  !- Wind Exposure
    1.000000,                !- View Factor to Ground
    4,                       !- Number of Vertices
    15.24000,0.000000,0.0,  !- X,Y,Z ==> Vertex 1 {m}
    0.000000,0.000000,0.0,  !- X,Y,Z ==> Vertex 2 {m}
    0.000000,15.24000,0.0,  !- X,Y,Z ==> Vertex 3 {m}
    15.24000,15.24000,0.0;  !- X,Y,Z ==> Vertex 4 {m}

  BuildingSurface:Detailed,
    Zn001:Roof001,           !- Name
    Roof,                    !- Surface Type
    ROOF31,                  !- Construction Name
    Main Zone,               !- Zone Name
    Outdoors,                !- Outside Boundary Condition
    ,                        !- Outside Boundary Condition Object
    SunExposed,              !- Sun Exposure
    WindExposed,             !- Wind Exposure
    0,                       !- View Factor to Ground
    4,                       !- Number of Vertices
    0.000000,15.24000,4.572,  !- X,Y,Z ==> Vertex 1 {m}
    0.000000,0.000000,4.572,  !- X,Y,Z ==> Vertex 2 {m}
    15.24000,0.000000,4.572,  !- X,Y,Z ==> Vertex 3 {m}
    15.24000,15.24000,4.572;  !- X,Y,Z ==> Vertex 4 {m}

!-   ===========  ALL OBJECTS IN CLASS: PEOPLE ===========

  People,
    SPACE1-1 People 1,       !- Name
    Main Zone,               !- Zone or ZoneList Name
    OCCUPY-1,                !- Number of People Schedule Name
    people,                  !- Number of People Calculation Method
    11,                      !- Number of People
    ,                        !- People per Zone Floor Area {person/m2}
    ,                        !- Zone Floor Area per Person {m2/person}
    0.3,                     !- Fraction Radiant
    ,                        !- Sensible Heat Fraction
    ActSchd;                 !- Activity Level Schedule Name

!-   ===========  ALL OBJECTS IN CLASS: ZONEINFILTRATION:DESIGNFLOWRATE ===========

  ZoneInfiltration:DesignFlowRate,
    Main Zone Infiltration,  !- Name
    Main Zone,               !- Zone or ZoneList Name
    System Availability Schedule,  !- Schedule Name
    Flow/Zone,               !- Design Flow Rate Calculation Method
    0.02,                    !- Design Flow Rate {m3/s}
    ,                        !- Flow per Zone Floor Area {m3/s-m2}
    ,                        !- Flow per Exterior Surface Area {m3/s-m2}
    ,                        !- Air Changes per Hour {1/hr}
    1.0000,                  !- Constant Term Coefficient
    0.0000,                  !- Temperature Term Coefficient
    0.0000,                  !- Velocity Term Coefficient
    0.0000;                  !- Velocity Squared Term Coefficient

!-   ===========  ALL OBJECTS IN CLASS: DESIGNSPECIFICATION:OUTDOORAIR ===========

  DesignSpecification:OutdoorAir,
    SZ DSOA SPACE2-1,        !- Name
    Flow/Zone,               !- Outdoor Air Method
    0.00236,                 !- Outdoor Air Flow per Person {m3/s-person}
    0.000305,                !- Outdoor Air Flow per Zone Floor Area {m3/s-m2}
    2.3,                     !- Outdoor Air Flow per Zone {m3/s}
    ,                        !- Outdoor Air Flow Air Changes per Hour {1/hr}
    MinOA_simple;            !- Outdoor Air Schedule Name

!-   ===========  ALL OBJECTS IN CLASS: SIZING:ZONE ===========

  Sizing:Zone,
    Main Zone,               !- Zone or ZoneList Name
    SupplyAirTemperature,    !- Zone Cooling Design Supply Air Temperature Input Method
    14.,                     !- Zone Cooling Design Supply Air Temperature {C}
    ,                        !- Zone Cooling Design Supply Air Temperature Difference {deltaC}
    SupplyAirTemperature,    !- Zone Heating Design Supply Air Temperature Input Method
    50.,                     !- Zone Heating Design Supply Air Temperature {C}
    ,                        !- Zone Heating Design Supply Air Temperature Difference {deltaC}
    0.009,                   !- Zone Cooling Design Supply Air Humidity Ratio {kgWater/kgDryAir}
    0.004,                   !- Zone Heating Design Supply Air Humidity Ratio {kgWater/kgDryAir}
    SZ DSOA SPACE2-1,        !- Design Specification Outdoor Air Object Name
    0.0,                     !- Zone Heating Sizing Factor
    0.0,                     !- Zone Cooling Sizing Factor
    DesignDayWithLimit,      !- Cooling Design Air Flow Method
    ,                        !- Cooling Design Air Flow Rate {m3/s}
    ,                        !- Cooling Minimum Air Flow per Zone Floor Area {m3/s-m2}
    ,                        !- Cooling Minimum Air Flow {m3/s}
    ,                        !- Cooling Minimum Air Flow Fraction
    DesignDay;               !- Heating Design Air Flow Method

!-   ===========  ALL OBJECTS IN CLASS: ZONECONTROL:THERMOSTAT ===========

  ZoneControl:Thermostat,
    Main Zone Thermostat,    !- Name
    Main Zone,               !- Zone or ZoneList Name
    Zone Control Type Sched, !- Control Type Schedule Name
    ThermostatSetpoint:DualSetpoint,  !- Control 1 Object Type
    Dual Setpoint Control;   !- Control 1 Name

  ZoneControl:Humidistat,
    Main Zone Humidistat,    !- Name
    Main Zone,               !- Zone Name
    HumidifyingHumSetSch,    !- Humidifying Relative Humidity Setpoint Schedule Name
    DehumidifyingHumSetSch;  !- Dehumidifying Relative Humidity Setpoint Schedule Name

  Schedule:Compact,
    HumidifyingHumSetSch,    !- Name
    Humidity,                !- Schedule Type Limits Name
    Through: 12/31,          !- Field 1
    For: Alldays,            !- Field 2
    Until: 24:00,40.0;       !- Field 3

  Schedule:Compact,
    DehumidifyingHumSetSch,  !- Name
    Humidity,                !- Schedule Type Limits Name
    Through: 12/31,          !- Field 1
    For: Alldays,            !- Field 2
    Until: 24:00,50.0;       !- Field 3

!-   ===========  ALL OBJECTS IN CLASS: THERMOSTATSETPOINT:DUALSETPOINT ===========

  ThermostatSetpoint:DualSetpoint,
    Dual Setpoint Control,   !- Name
    Heating Setpoint Schedule,  !- Heating Setpoint Temperature Schedule Name
    Cooling Setpoint Schedule;  !- Cooling Setpoint Temperature Schedule Name

!-   ===========  ALL OBJECTS IN CLASS: ZONEHVAC:BASEBOARD:CONVECTIVE:ELECTRIC ===========

  ZoneHVAC:Baseboard:Convective:Electric,
    Main Zone Baseboard,     !- Name
    System Availability Schedule,  !- Availability Schedule Name
    HeatingDesignCapacity,   !- Heating Design Capacity Method
    8000,                    !- Heating Design Capacity {W}
    ,                        !- Heating Design Capacity Per Floor Area {W/m2}
    ,                        !- Fraction of Autosized Heating Design Capacity
    0.97;                    !- Efficiency

!-   ===========  ALL OBJECTS IN CLASS: ZONEHVAC:EQUIPMENTLIST ===========

  ZoneHVAC:EquipmentList,
    Main Zone Equipment List,!- Name
	SequentialLoad,
    ZoneHVAC:HybridUnitaryHVAC,  !- Zone Equipment 1 Object Type
    MUNTERSEPX5000,          !- Zone Equipment 1 Name
    1,                       !- Zone Equipment 1 Cooling Sequence
    2,                       !- Zone Equipment 1 Heating or No-Load Sequence
    ZoneHVAC:Baseboard:Convective:Electric,  !- Zone Equipment 2 Object Type
    Main Zone Baseboard,     !- Zone Equipment 2 Name
    2,                       !- Zone Equipment 2 Cooling Sequence
    1;                       !- Zone Equipment 2 Heating or No-Load Sequence
	
	
ZoneHVAC:HybridUnitaryHVAC,
    MUNTERSEPX5000,          !- Name
    ALWAYS_ON,               !- Availability Schedule Name
    ,                        !- Availability Manager List Name
    MinSupplyT,              !- Minimum Supply Air Temperature Schedule Name
    MaxSupplyT,              !- Maximum Supply Air Temperature Schedule Name
    MinSupplyHR,             !- Minimum Supply Air Humidity Ratio Schedule Name
    MaxSupplyHR,             !- Maximum Supply Air Humidity Ratio Schedule Name
    AUTOMATIC,               !- Method to Choose Controlled Inputs and Part Runtime Fraction
    Main Return Air Node Name,  !- Return Air Node Name
    Outside Air Inlet Node,  !- Outside Air Node Name
    Main Zone Inlet Node,    !- Supply Air Node Name
    Main Relief Node,        !- Relief Node Name
    2.51,                    !- System Maximum Supply AirFlow Rate {m3/s}
    ,                        !- External Static Pressure at System Maximum Supply Air Flow Rate {Pa}
    1,                       !- Scaling Factor
    6,                       !- Number of Operating Modes
    10,                      !- Minimum Time Between Mode Change {minutes}
    Electricity,             !- First fuel type
    NaturalGas,              !- Second fuel type
    DistrictCooling,         !- Third fuel type
    ,                        !- Objective Function Minimizes
    SZ DSOA SPACE2-1,        !- Design Specification Outdoor Air Object Name
    Mode0 Standby,           !- Mode0 Name
    ,                        !- Mode0 Supply Air Temperature Lookup Table Name
    ,                        !- Mode0 Supply Air Humidity Ratio Lookup Table Name
    Mode0_Power_lookup,      !- Mode0 System Electric Power Lookup Table Name
    ,                        !- Mode0 Supply Fan Electric Power Lookup Table Name
    ,                        !- Mode0 External Static Pressure Lookup Table Name
    ,                        !- Mode0 System Second Fuel Consumption Lookup Table Name
    ,                        !- Mode0 System Third Fuel Consumption Lookup Table Name
    ,                        !- Mode0 System Water Use Lookup Table Name
    0,                       !- Mode0 Outside Air Fraction
    0,                       !- Mode0 Supply Air Mass Flow Rate Ratio
    Mode1_IEC,               !- Mode1 Name
    Mode1_TSA_lookup,        !- Mode1 Supply Air Temperature Lookup Table Name
    Mode1_wSA_lookup,        !- Mode1 Supply Air Humidity Ratio Lookup Table Name
    Mode1_Power_lookup,      !- Mode1 System Electric Power Lookup Table Name
    Mode1_FanPower_lookup,   !- Mode1 Supply Fan Electric Power Lookup Table Name
    Mode1_ESP_lookup,        !- Mode1 External Static Pressure Lookup Table Name
    ,                        !- Mode1 System Second Fuel Consumption Lookup Table Name
    ,                        !- Mode1 System Third Fuel Consumption Lookup Table Name
    Mode1_water_lookup,      !- Mode1 System Water Use Lookup Table Name
    -20,                     !- Mode1 Minimum Outside Air Temperature {C}
    100,                     !- Mode1 Maximum Outside Air Temperature {C}
    0,                       !- Mode1 Minimum Outside Air Humidity Ratio {kgWater/kgDryAir}
    0.03,                    !- Mode1 Maximum Outside Air Humidity Ratio {kgWater/kgDryAir}
    0,                       !- Mode1 Minimum Outside Air Relative Humidity {percent}
    100,                     !- Mode1 Maximum Outside Air Relative Humidity {percent}
    -20,                     !- Mode1 Minimum Return Air Temperature {C}
    100,                     !- Mode1 Maximum Return Air Temperature {C}
    0,                       !- Mode1 Minimum Return Air Humidity Ratio {kgWater/kgDryAir}
    0.03,                    !- Mode1 Maximum Return Air Humidity Ratio {kgWater/kgDryAir}
    0,                       !- Mode1 Minimum Return Air Relative Humidity {percent}
    100,                     !- Mode1 Maximum Return Air Relative Humidity {percent}
    1,                       !- Mode1 Minimum Outside Air Fraction
    1,                       !- Mode1 Maximum Outside Air Fraction